/*---------------------------------------------------------------------------*\
  =========                 |
  \\      /  F ield         | OpenFOAM: The Open Source CFD Toolbox
   \\    /   O peration     | Website:  https://openfoam.org
    \\  /    A nd           | Version:  9
     \\/     M anipulation  |
\*---------------------------------------------------------------------------*/
Build  : 9
Exec   : surfaceFeatures
Date   : Mar 11 2026
Time   : 21:23:20
Host   : "oseasy-desktopVDI"
PID    : 1583212
I/O    : uncollated
Case   : /media/dev/vdb1/xuzicheng/agent/building3D
nProcs : 1
sigFpe : Enabling floating point exception trapping (FOAM_SIGFPE).
fileModificationChecking : Monitoring run-time modified files using timeStampMaster (fileModificationSkew 10)
allowSystemOperations : Allowing user-supplied system call operations

// * * * * * * * * * * * * * * * * * * * * * * * * * * * * * * * * * * * * * //
Create time

--> FOAM Warning : 
    From function void* Foam::dlOpen(const Foam::fileName&, bool)
    in file POSIX.C at line 1247
    dlopen error : libblastFoam.so: cannot open shared object file: No such file or directory
--> FOAM Warning : 
    From function bool Foam::dlLibraryTable::open(const Foam::fileName&, bool)
    in file db/dynamicLibrary/dlLibraryTable/dlLibraryTable.C at line 106
    could not load "libblastFoam.so"
Reading "surfaceFeaturesDict"



--> FOAM FATAL IO ERROR: 
Attempt to return dictionary entry as a primitive

file: /media/dev/vdb1/xuzicheng/agent/building3D/system/surfaceFeaturesDict/surfaces from line 22 to line 23.

    From function virtual Foam::ITstream& Foam::dictionaryEntry::stream() const
    in file db/dictionary/dictionaryEntry/dictionaryEntry.C at line 83.

FOAM aborting

#0  Foam::error::printStack(Foam::Ostream&) at ??:?
#1  Foam::IOerror::abort() at ??:?
#2  Foam::dictionaryEntry::stream() const at ??:?
#3  ? in "/home/oseasy/OpenFOAM/OpenFOAM-9/platforms/linux64GccDPInt32Opt/bin/surfaceFeatures"
#4  __libc_start_main in "/lib/x86_64-linux-gnu/libc.so.6"
#5  ? in "/home/oseasy/OpenFOAM/OpenFOAM-9/platforms/linux64GccDPInt32Opt/bin/surfaceFeatures"
Aborted (core dumped)
