/*---------------------------------------------------------------------------*\
  =========                 |
  \\      /  F ield         | OpenFOAM: The Open Source CFD Toolbox
   \\    /   O peration     | Website:  https://openfoam.org
    \\  /    A nd           | Version:  9
     \\/     M anipulation  |
\*---------------------------------------------------------------------------*/
Build  : 9
Exec   : setFields
Date   : Mar 11 2026
Time   : 21:23:21
Host   : "oseasy-desktopVDI"
PID    : 1583289
I/O    : uncollated
Case   : /media/dev/vdb1/xuzicheng/agent/building3D
nProcs : 1
sigFpe : Enabling floating point exception trapping (FOAM_SIGFPE).
fileModificationChecking : Monitoring run-time modified files using timeStampMaster (fileModificationSkew 10)
allowSystemOperations : Allowing user-supplied system call operations

// * * * * * * * * * * * * * * * * * * * * * * * * * * * * * * * * * * * * * //
Create time

--> FOAM Warning : 
    From function void* Foam::dlOpen(const Foam::fileName&, bool)
    in file POSIX.C at line 1247
    dlopen error : libblastFoam.so: cannot open shared object file: No such file or directory
--> FOAM Warning : 
    From function bool Foam::dlLibraryTable::open(const Foam::fileName&, bool)
    in file db/dynamicLibrary/dlLibraryTable/dlLibraryTable.C at line 106
    could not load "libblastFoam.so"
Create mesh for time = 0

Reading "setFieldsDict"

Setting field region values
    Adding cells with centre within cylinder, with point1 = (1 1 0), point2 = (1 1 0.2) and radius = 0.1
    Setting internal values of volScalarField alpha.C4
    Setting internal values of volScalarField alpha.Air
    Setting internal values of volScalarField e

End

