/*---------------------------------------------------------------------------*\
  =========                 |
  \\      /  F ield         | OpenFOAM: The Open Source CFD Toolbox
   \\    /   O peration     | Website:  https://openfoam.org
    \\  /    A nd           | Version:  9
     \\/     M anipulation  |
\*---------------------------------------------------------------------------*/
Build  : 9
Exec   : blastFoam
Date   : Mar 11 2026
Time   : 21:23:21
Host   : "oseasy-desktopVDI"
PID    : 1583300
I/O    : uncollated
Case   : /media/dev/vdb1/xuzicheng/agent/building3D
nProcs : 1
sigFpe : Enabling floating point exception trapping (FOAM_SIGFPE).
fileModificationChecking : Monitoring run-time modified files using timeStampMaster (fileModificationSkew 10)
allowSystemOperations : Allowing user-supplied system call operations

// * * * * * * * * * * * * * * * * * * * * * * * * * * * * * * * * * * * * * //
Create time

--> FOAM Warning : 
    From function void* Foam::dlOpen(const Foam::fileName&, bool)
    in file POSIX.C at line 1247
    dlopen error : libblastFoam.so: cannot open shared object file: No such file or directory
--> FOAM Warning : 
    From function bool Foam::dlLibraryTable::open(const Foam::fileName&, bool)
    in file db/dynamicLibrary/dlLibraryTable/dlLibraryTable.C at line 106
    could not load "libblastFoam.so"
Create mesh for time = 0


Reading g
Selecting timeIntegrator: Euler
Reading phaseProperties dictionary

Selecting thermodynamics package phaseFluid<detonating<const<eConst<Murnaghan<specie>>>,const<ePolynomial<JWL<specie>>>>>
Selecting activationModel: none
Selecting afterburnModel: none
Selecting thermodynamics package phaseFluid<basic<const<eConst<idealGas<specie>>>>>
Selecting univariate root solver: NewtonRaphson
Selecting univariate root solver: NewtonRaphson
Selecting fluxScheme: Kurganov

Starting time loop

Courant Number Mean/Max = 0.000501996, 0.000501996
deltaT = 1.1999e-07
Time = 1.1999e-07

Calculating Fluxes
Euler: step 1
Solving compressibleSystem:

Post-updating compressibleSystem:

max(p): 98000, min(p): 98000
max(T): 278.552, min(T): 278.552
ExecutionTime = 0.6 s  ClockTime = 1 s

Courant Number Mean/Max = 0.000602347, 0.000602347
deltaT = 1.43971e-07
Time = 2.63962e-07

Calculating Fluxes
Euler: step 1
Solving compressibleSystem:

Post-updating compressibleSystem:

max(p): 98000, min(p): 98000
max(T): 278.552, min(T): 278.552
ExecutionTime = 0.74 s  ClockTime = 1 s

Courant Number Mean/Max = 0.00072273, 0.00072273
deltaT = 1.72755e-07
Time = 4.36717e-07

Calculating Fluxes
Euler: step 1
Solving compressibleSystem:

Post-updating compressibleSystem:

max(p): 98000, min(p): 98000
max(T): 278.552, min(T): 278.552
ExecutionTime = 0.9 s  ClockTime = 1 s

Courant Number Mean/Max = 0.000867226, 0.000867226
deltaT = 2.07292e-07
Time = 6.44009e-07

Calculating Fluxes
Euler: step 1
Solving compressibleSystem:

Post-updating compressibleSystem:

max(p): 98000, min(p): 98000
max(T): 278.552, min(T): 278.552
ExecutionTime = 1.03 s  ClockTime = 1 s

Courant Number Mean/Max = 0.0010406, 0.0010406
deltaT = 2.4872e-07
Time = 8.92729e-07

Calculating Fluxes
Euler: step 1
Solving compressibleSystem:

Post-updating compressibleSystem:

max(p): 98000, min(p): 98000
max(T): 278.552, min(T): 278.552
ExecutionTime = 1.18 s  ClockTime = 1 s

Courant Number Mean/Max = 0.00124856, 0.00124856
deltaT = 2.98419e-07
Time = 1.19115e-06

Calculating Fluxes
Euler: step 1
Solving compressibleSystem:

Post-updating compressibleSystem:

max(p): 98000, min(p): 98000
max(T): 278.552, min(T): 278.552
ExecutionTime = 1.32 s  ClockTime = 2 s

Courant Number Mean/Max = 0.00149805, 0.00149805
deltaT = 3.57996e-07
Time = 1.54914e-06

Calculating Fluxes
Euler: step 1
Solving compressibleSystem:

Post-updating compressibleSystem:

max(p): 98000, min(p): 98000
max(T): 278.552, min(T): 278.552
ExecutionTime = 1.46 s  ClockTime = 2 s

Courant Number Mean/Max = 0.00179713, 0.00179713
deltaT = 4.29441e-07
Time = 1.97859e-06

Calculating Fluxes
Euler: step 1
Solving compressibleSystem:

Post-updating compressibleSystem:

max(p): 98000, min(p): 98000
max(T): 278.552, min(T): 278.552
ExecutionTime = 1.61 s  ClockTime = 2 s

Courant Number Mean/Max = 0.00215578, 0.00215578
deltaT = 5.15241e-07
Time = 2.49383e-06

Calculating Fluxes
Euler: step 1
Solving compressibleSystem:

Post-updating compressibleSystem:

max(p): 98000, min(p): 98000
max(T): 278.552, min(T): 278.552
ExecutionTime = 1.76 s  ClockTime = 2 s

Courant Number Mean/Max = 0.00258649, 0.00258649
deltaT = 6.18034e-07
Time = 3.11186e-06

Calculating Fluxes
Euler: step 1
Solving compressibleSystem:

Post-updating compressibleSystem:

max(p): 98000, min(p): 98000
max(T): 278.552, min(T): 278.552
ExecutionTime = 1.91 s  ClockTime = 2 s

Courant Number Mean/Max = 0.0031025, 0.0031025
deltaT = 7.41181e-07
Time = 3.85304e-06

Calculating Fluxes
Euler: step 1
Solving compressibleSystem:

Post-updating compressibleSystem:

max(p): 98000, min(p): 98000
max(T): 278.552, min(T): 278.552
ExecutionTime = 2.06 s  ClockTime = 2 s

Courant Number Mean/Max = 0.0037207, 0.0037207
deltaT = 8.89417e-07
Time = 4.74246e-06

Calculating Fluxes
Euler: step 1
Solving compressibleSystem:

Post-updating compressibleSystem:

max(p): 98000, min(p): 98000
max(T): 278.552, min(T): 278.552
ExecutionTime = 2.2 s  ClockTime = 2 s

Courant Number Mean/Max = 0.00446484, 0.00446484
deltaT = 9.99255e-07
Time = 5.74171e-06

Calculating Fluxes
Euler: step 1
Solving compressibleSystem:

Post-updating compressibleSystem:

max(p): 98000, min(p): 98000
max(T): 278.552, min(T): 278.552
ExecutionTime = 2.36 s  ClockTime = 3 s

Courant Number Mean/Max = 0.00501622, 0.00501622
deltaT = 9.99255e-07
Time = 6.74097e-06

Calculating Fluxes
Euler: step 1
Solving compressibleSystem:

Post-updating compressibleSystem:

max(p): 98000, min(p): 98000
max(T): 278.552, min(T): 278.552
ExecutionTime = 2.5 s  ClockTime = 3 s

Courant Number Mean/Max = 0.00501622, 0.00501622
deltaT = 9.99255e-07
Time = 7.74022e-06

Calculating Fluxes
Euler: step 1
Solving compressibleSystem:

Post-updating compressibleSystem:

max(p): 98000, min(p): 98000
max(T): 278.552, min(T): 278.552
ExecutionTime = 2.65 s  ClockTime = 3 s

Courant Number Mean/Max = 0.00501622, 0.00501622
deltaT = 9.99255e-07
Time = 8.73948e-06

Calculating Fluxes
Euler: step 1
Solving compressibleSystem:

Post-updating compressibleSystem:

max(p): 98000, min(p): 98000
max(T): 278.552, min(T): 278.552
ExecutionTime = 2.8 s  ClockTime = 3 s

Courant Number Mean/Max = 0.00501622, 0.00501622
deltaT = 9.99255e-07
Time = 9.73873e-06

Calculating Fluxes
Euler: step 1
Solving compressibleSystem:

Post-updating compressibleSystem:

max(p): 98000, min(p): 98000
max(T): 278.552, min(T): 278.552
ExecutionTime = 2.94 s  ClockTime = 3 s

Courant Number Mean/Max = 0.00501622, 0.00501622
deltaT = 9.99255e-07
Time = 1.0738e-05

Calculating Fluxes
Euler: step 1
Solving compressibleSystem:

Post-updating compressibleSystem:

max(p): 98000, min(p): 98000
max(T): 278.552, min(T): 278.552
ExecutionTime = 3.09 s  ClockTime = 3 s

Courant Number Mean/Max = 0.00501622, 0.00501622
deltaT = 9.99255e-07
Time = 1.17372e-05

Calculating Fluxes
Euler: step 1
Solving compressibleSystem:

Post-updating compressibleSystem:

max(p): 98000, min(p): 98000
max(T): 278.552, min(T): 278.552
ExecutionTime = 3.24 s  ClockTime = 4 s

Courant Number Mean/Max = 0.00501622, 0.00501622
deltaT = 9.99255e-07
Time = 1.27365e-05

Calculating Fluxes
Euler: step 1
Solving compressibleSystem:

Post-updating compressibleSystem:

max(p): 98000, min(p): 98000
max(T): 278.552, min(T): 278.552
ExecutionTime = 3.38 s  ClockTime = 4 s

Courant Number Mean/Max = 0.00501622, 0.00501622
deltaT = 9.99255e-07
Time = 1.37357e-05

Calculating Fluxes
Euler: step 1
Solving compressibleSystem:

Post-updating compressibleSystem:

max(p): 98000, min(p): 98000
max(T): 278.552, min(T): 278.552
ExecutionTime = 3.53 s  ClockTime = 4 s

Courant Number Mean/Max = 0.00501622, 0.00501622
deltaT = 9.99255e-07
Time = 1.4735e-05

Calculating Fluxes
Euler: step 1
Solving compressibleSystem:

Post-updating compressibleSystem:

max(p): 98000, min(p): 98000
max(T): 278.552, min(T): 278.552
ExecutionTime = 3.68 s  ClockTime = 4 s

Courant Number Mean/Max = 0.00501622, 0.00501622
deltaT = 9.99255e-07
Time = 1.57343e-05

Calculating Fluxes
Euler: step 1
Solving compressibleSystem:

Post-updating compressibleSystem:

max(p): 98000, min(p): 98000
max(T): 278.552, min(T): 278.552
ExecutionTime = 3.83 s  ClockTime = 4 s

Courant Number Mean/Max = 0.00501622, 0.00501622
deltaT = 9.99255e-07
Time = 1.67335e-05

Calculating Fluxes
Euler: step 1
Solving compressibleSystem:

Post-updating compressibleSystem:

max(p): 98000, min(p): 98000
max(T): 278.552, min(T): 278.552
ExecutionTime = 3.98 s  ClockTime = 4 s

Courant Number Mean/Max = 0.00501622, 0.00501622
deltaT = 9.99255e-07
Time = 1.77328e-05

Calculating Fluxes
Euler: step 1
Solving compressibleSystem:

Post-updating compressibleSystem:

max(p): 98000, min(p): 98000
max(T): 278.552, min(T): 278.552
ExecutionTime = 4.13 s  ClockTime = 4 s

Courant Number Mean/Max = 0.00501622, 0.00501622
deltaT = 9.99255e-07
Time = 1.8732e-05

Calculating Fluxes
Euler: step 1
Solving compressibleSystem:

Post-updating compressibleSystem:

max(p): 98000, min(p): 98000
max(T): 278.552, min(T): 278.552
ExecutionTime = 4.27 s  ClockTime = 5 s

Courant Number Mean/Max = 0.00501622, 0.00501622
deltaT = 9.99255e-07
Time = 1.97313e-05

Calculating Fluxes
Euler: step 1
Solving compressibleSystem:

Post-updating compressibleSystem:

max(p): 98000, min(p): 98000
max(T): 278.552, min(T): 278.552
ExecutionTime = 4.42 s  ClockTime = 5 s

Courant Number Mean/Max = 0.00501622, 0.00501622
deltaT = 9.99255e-07
Time = 2.07305e-05

Calculating Fluxes
Euler: step 1
Solving compressibleSystem:

Post-updating compressibleSystem:

max(p): 98000, min(p): 98000
max(T): 278.552, min(T): 278.552
ExecutionTime = 4.56 s  ClockTime = 5 s

Courant Number Mean/Max = 0.00501622, 0.00501622
deltaT = 9.99255e-07
Time = 2.17298e-05

Calculating Fluxes
Euler: step 1
Solving compressibleSystem:

Post-updating compressibleSystem:

max(p): 98000, min(p): 98000
max(T): 278.552, min(T): 278.552
ExecutionTime = 4.7 s  ClockTime = 5 s

Courant Number Mean/Max = 0.00501622, 0.00501622
deltaT = 9.99255e-07
Time = 2.2729e-05

Calculating Fluxes
Euler: step 1
Solving compressibleSystem:

Post-updating compressibleSystem:

max(p): 98000, min(p): 98000
max(T): 278.552, min(T): 278.552
ExecutionTime = 4.85 s  ClockTime = 5 s

Courant Number Mean/Max = 0.00501622, 0.00501622
deltaT = 9.99255e-07
Time = 2.37283e-05

Calculating Fluxes
Euler: step 1
Solving compressibleSystem:

Post-updating compressibleSystem:

max(p): 98000, min(p): 98000
max(T): 278.552, min(T): 278.552
ExecutionTime = 5 s  ClockTime = 5 s

Courant Number Mean/Max = 0.00501622, 0.00501622
deltaT = 9.99255e-07
Time = 2.47275e-05

Calculating Fluxes
Euler: step 1
Solving compressibleSystem:

Post-updating compressibleSystem:

max(p): 98000, min(p): 98000
max(T): 278.552, min(T): 278.552
ExecutionTime = 5.14 s  ClockTime = 5 s

Courant Number Mean/Max = 0.00501622, 0.00501622
deltaT = 9.99255e-07
Time = 2.57268e-05

Calculating Fluxes
Euler: step 1
Solving compressibleSystem:

Post-updating compressibleSystem:

max(p): 98000, min(p): 98000
max(T): 278.552, min(T): 278.552
ExecutionTime = 5.3 s  ClockTime = 6 s

Courant Number Mean/Max = 0.00501622, 0.00501622
deltaT = 9.99255e-07
Time = 2.67261e-05

Calculating Fluxes
Euler: step 1
Solving compressibleSystem:

Post-updating compressibleSystem:

max(p): 98000, min(p): 98000
max(T): 278.552, min(T): 278.552
ExecutionTime = 5.44 s  ClockTime = 6 s

Courant Number Mean/Max = 0.00501622, 0.00501622
deltaT = 9.99255e-07
Time = 2.77253e-05

Calculating Fluxes
Euler: step 1
Solving compressibleSystem:

Post-updating compressibleSystem:

max(p): 98000, min(p): 98000
max(T): 278.552, min(T): 278.552
ExecutionTime = 5.59 s  ClockTime = 6 s

Courant Number Mean/Max = 0.00501622, 0.00501622
deltaT = 9.99255e-07
Time = 2.87246e-05

Calculating Fluxes
Euler: step 1
Solving compressibleSystem:

Post-updating compressibleSystem:

max(p): 98000, min(p): 98000
max(T): 278.552, min(T): 278.552
ExecutionTime = 5.74 s  ClockTime = 6 s

Courant Number Mean/Max = 0.00501622, 0.00501622
deltaT = 9.99255e-07
Time = 2.97238e-05

Calculating Fluxes
Euler: step 1
Solving compressibleSystem:

Post-updating compressibleSystem:

max(p): 98000, min(p): 98000
max(T): 278.552, min(T): 278.552
ExecutionTime = 5.89 s  ClockTime = 6 s

Courant Number Mean/Max = 0.00501622, 0.00501622
deltaT = 9.99255e-07
Time = 3.07231e-05

Calculating Fluxes
Euler: step 1
Solving compressibleSystem:

Post-updating compressibleSystem:

max(p): 98000, min(p): 98000
max(T): 278.552, min(T): 278.552
ExecutionTime = 6.04 s  ClockTime = 6 s

Courant Number Mean/Max = 0.00501622, 0.00501622
deltaT = 9.99255e-07
Time = 3.17223e-05

Calculating Fluxes
Euler: step 1
Solving compressibleSystem:

Post-updating compressibleSystem:

max(p): 98000, min(p): 98000
max(T): 278.552, min(T): 278.552
ExecutionTime = 6.19 s  ClockTime = 6 s

Courant Number Mean/Max = 0.00501622, 0.00501622
deltaT = 9.99255e-07
Time = 3.27216e-05

Calculating Fluxes
Euler: step 1
Solving compressibleSystem:

Post-updating compressibleSystem:

max(p): 98000, min(p): 98000
max(T): 278.552, min(T): 278.552
ExecutionTime = 6.34 s  ClockTime = 7 s

Courant Number Mean/Max = 0.00501622, 0.00501622
deltaT = 9.99255e-07
Time = 3.37208e-05

Calculating Fluxes
Euler: step 1
Solving compressibleSystem:

Post-updating compressibleSystem:

max(p): 98000, min(p): 98000
max(T): 278.552, min(T): 278.552
ExecutionTime = 6.49 s  ClockTime = 7 s

Courant Number Mean/Max = 0.00501622, 0.00501622
deltaT = 9.99255e-07
Time = 3.47201e-05

Calculating Fluxes
Euler: step 1
Solving compressibleSystem:

Post-updating compressibleSystem:

max(p): 98000, min(p): 98000
max(T): 278.552, min(T): 278.552
ExecutionTime = 6.64 s  ClockTime = 7 s

Courant Number Mean/Max = 0.00501622, 0.00501622
deltaT = 9.99255e-07
Time = 3.57193e-05

Calculating Fluxes
Euler: step 1
Solving compressibleSystem:

Post-updating compressibleSystem:

max(p): 98000, min(p): 98000
max(T): 278.552, min(T): 278.552
ExecutionTime = 6.79 s  ClockTime = 7 s

Courant Number Mean/Max = 0.00501622, 0.00501622
deltaT = 9.99255e-07
Time = 3.67186e-05

Calculating Fluxes
Euler: step 1
Solving compressibleSystem:

Post-updating compressibleSystem:

max(p): 98000, min(p): 98000
max(T): 278.552, min(T): 278.552
ExecutionTime = 6.94 s  ClockTime = 7 s

Courant Number Mean/Max = 0.00501622, 0.00501622
deltaT = 9.99255e-07
Time = 3.77179e-05

Calculating Fluxes
Euler: step 1
Solving compressibleSystem:

Post-updating compressibleSystem:

max(p): 98000, min(p): 98000
max(T): 278.552, min(T): 278.552
ExecutionTime = 7.09 s  ClockTime = 7 s

Courant Number Mean/Max = 0.00501622, 0.00501622
deltaT = 9.99255e-07
Time = 3.87171e-05

Calculating Fluxes
Euler: step 1
Solving compressibleSystem:

Post-updating compressibleSystem:

max(p): 98000, min(p): 98000
max(T): 278.552, min(T): 278.552
ExecutionTime = 7.24 s  ClockTime = 8 s

Courant Number Mean/Max = 0.00501622, 0.00501622
deltaT = 9.99255e-07
Time = 3.97164e-05

Calculating Fluxes
Euler: step 1
Solving compressibleSystem:

Post-updating compressibleSystem:

max(p): 98000, min(p): 98000
max(T): 278.552, min(T): 278.552
ExecutionTime = 7.4 s  ClockTime = 8 s

Courant Number Mean/Max = 0.00501622, 0.00501622
deltaT = 9.99255e-07
Time = 4.07156e-05

Calculating Fluxes
Euler: step 1
Solving compressibleSystem:

Post-updating compressibleSystem:

max(p): 98000, min(p): 98000
max(T): 278.552, min(T): 278.552
ExecutionTime = 7.54 s  ClockTime = 8 s

Courant Number Mean/Max = 0.00501622, 0.00501622
deltaT = 9.99255e-07
Time = 4.17149e-05

Calculating Fluxes
Euler: step 1
Solving compressibleSystem:

Post-updating compressibleSystem:

max(p): 98000, min(p): 98000
max(T): 278.552, min(T): 278.552
ExecutionTime = 7.69 s  ClockTime = 8 s

Courant Number Mean/Max = 0.00501622, 0.00501622
deltaT = 9.99255e-07
Time = 4.27141e-05

Calculating Fluxes
Euler: step 1
Solving compressibleSystem:

Post-updating compressibleSystem:

max(p): 98000, min(p): 98000
max(T): 278.552, min(T): 278.552
ExecutionTime = 7.85 s  ClockTime = 8 s

Courant Number Mean/Max = 0.00501622, 0.00501622
deltaT = 9.99255e-07
Time = 4.37134e-05

Calculating Fluxes
Euler: step 1
Solving compressibleSystem:

Post-updating compressibleSystem:

max(p): 98000, min(p): 98000
max(T): 278.552, min(T): 278.552
ExecutionTime = 7.99 s  ClockTime = 8 s

Courant Number Mean/Max = 0.00501622, 0.00501622
deltaT = 9.99255e-07
Time = 4.47126e-05

Calculating Fluxes
Euler: step 1
Solving compressibleSystem:

Post-updating compressibleSystem:

max(p): 98000, min(p): 98000
max(T): 278.552, min(T): 278.552
ExecutionTime = 8.15 s  ClockTime = 8 s

Courant Number Mean/Max = 0.00501622, 0.00501622
deltaT = 9.99255e-07
Time = 4.57119e-05

Calculating Fluxes
Euler: step 1
Solving compressibleSystem:

Post-updating compressibleSystem:

max(p): 98000, min(p): 98000
max(T): 278.552, min(T): 278.552
ExecutionTime = 8.3 s  ClockTime = 9 s

Courant Number Mean/Max = 0.00501622, 0.00501622
deltaT = 9.99255e-07
Time = 4.67111e-05

Calculating Fluxes
Euler: step 1
Solving compressibleSystem:

Post-updating compressibleSystem:

max(p): 98000, min(p): 98000
max(T): 278.552, min(T): 278.552
ExecutionTime = 8.44 s  ClockTime = 9 s

Courant Number Mean/Max = 0.00501622, 0.00501622
deltaT = 9.99255e-07
Time = 4.77104e-05

Calculating Fluxes
Euler: step 1
Solving compressibleSystem:

Post-updating compressibleSystem:

max(p): 98000, min(p): 98000
max(T): 278.552, min(T): 278.552
ExecutionTime = 8.6 s  ClockTime = 9 s

Courant Number Mean/Max = 0.00501622, 0.00501622
deltaT = 9.99255e-07
Time = 4.87097e-05

Calculating Fluxes
Euler: step 1
Solving compressibleSystem:

Post-updating compressibleSystem:

max(p): 98000, min(p): 98000
max(T): 278.552, min(T): 278.552
ExecutionTime = 8.75 s  ClockTime = 9 s

Courant Number Mean/Max = 0.00501622, 0.00501622
deltaT = 9.99255e-07
Time = 4.97089e-05

Calculating Fluxes
Euler: step 1
Solving compressibleSystem:

Post-updating compressibleSystem:

max(p): 98000, min(p): 98000
max(T): 278.552, min(T): 278.552
ExecutionTime = 8.89 s  ClockTime = 9 s

Courant Number Mean/Max = 0.00501622, 0.00501622
deltaT = 9.99255e-07
Time = 5.07082e-05

Calculating Fluxes
Euler: step 1
Solving compressibleSystem:

Post-updating compressibleSystem:

max(p): 98000, min(p): 98000
max(T): 278.552, min(T): 278.552
ExecutionTime = 9.05 s  ClockTime = 9 s

Courant Number Mean/Max = 0.00501622, 0.00501622
deltaT = 9.99255e-07
Time = 5.17074e-05

Calculating Fluxes
Euler: step 1
Solving compressibleSystem:

Post-updating compressibleSystem:

max(p): 98000, min(p): 98000
max(T): 278.552, min(T): 278.552
ExecutionTime = 9.19 s  ClockTime = 9 s

Courant Number Mean/Max = 0.00501622, 0.00501622
deltaT = 9.99255e-07
Time = 5.27067e-05

Calculating Fluxes
Euler: step 1
Solving compressibleSystem:

Post-updating compressibleSystem:

max(p): 98000, min(p): 98000
max(T): 278.552, min(T): 278.552
ExecutionTime = 9.35 s  ClockTime = 10 s

Courant Number Mean/Max = 0.00501622, 0.00501622
deltaT = 9.99255e-07
Time = 5.37059e-05

Calculating Fluxes
Euler: step 1
Solving compressibleSystem:

Post-updating compressibleSystem:

max(p): 98000, min(p): 98000
max(T): 278.552, min(T): 278.552
ExecutionTime = 9.5 s  ClockTime = 10 s

Courant Number Mean/Max = 0.00501622, 0.00501622
deltaT = 9.99255e-07
Time = 5.47052e-05

Calculating Fluxes
Euler: step 1
Solving compressibleSystem:

Post-updating compressibleSystem:

max(p): 98000, min(p): 98000
max(T): 278.552, min(T): 278.552
ExecutionTime = 9.65 s  ClockTime = 10 s

Courant Number Mean/Max = 0.00501622, 0.00501622
deltaT = 9.99255e-07
Time = 5.57044e-05

Calculating Fluxes
Euler: step 1
Solving compressibleSystem:

Post-updating compressibleSystem:

max(p): 98000, min(p): 98000
max(T): 278.552, min(T): 278.552
ExecutionTime = 9.79 s  ClockTime = 10 s

Courant Number Mean/Max = 0.00501622, 0.00501622
deltaT = 9.99255e-07
Time = 5.67037e-05

Calculating Fluxes
Euler: step 1
Solving compressibleSystem:

Post-updating compressibleSystem:

max(p): 98000, min(p): 98000
max(T): 278.552, min(T): 278.552
ExecutionTime = 9.94 s  ClockTime = 10 s

Courant Number Mean/Max = 0.00501622, 0.00501622
deltaT = 9.99255e-07
Time = 5.77029e-05

Calculating Fluxes
Euler: step 1
Solving compressibleSystem:

Post-updating compressibleSystem:

max(p): 98000, min(p): 98000
max(T): 278.552, min(T): 278.552
ExecutionTime = 10.09 s  ClockTime = 10 s

Courant Number Mean/Max = 0.00501622, 0.00501622
deltaT = 9.99255e-07
Time = 5.87022e-05

Calculating Fluxes
Euler: step 1
Solving compressibleSystem:

Post-updating compressibleSystem:

max(p): 98000, min(p): 98000
max(T): 278.552, min(T): 278.552
ExecutionTime = 10.25 s  ClockTime = 11 s

Courant Number Mean/Max = 0.00501622, 0.00501622
deltaT = 9.99255e-07
Time = 5.97015e-05

Calculating Fluxes
Euler: step 1
Solving compressibleSystem:

Post-updating compressibleSystem:

max(p): 98000, min(p): 98000
max(T): 278.552, min(T): 278.552
ExecutionTime = 10.39 s  ClockTime = 11 s

Courant Number Mean/Max = 0.00501622, 0.00501622
deltaT = 9.99255e-07
Time = 6.07007e-05

Calculating Fluxes
Euler: step 1
Solving compressibleSystem:

Post-updating compressibleSystem:

max(p): 98000, min(p): 98000
max(T): 278.552, min(T): 278.552
ExecutionTime = 10.54 s  ClockTime = 11 s

Courant Number Mean/Max = 0.00501622, 0.00501622
deltaT = 9.99255e-07
Time = 6.17e-05

Calculating Fluxes
Euler: step 1
Solving compressibleSystem:

Post-updating compressibleSystem:

max(p): 98000, min(p): 98000
max(T): 278.552, min(T): 278.552
ExecutionTime = 10.7 s  ClockTime = 11 s

Courant Number Mean/Max = 0.00501622, 0.00501622
deltaT = 9.99255e-07
Time = 6.26992e-05

Calculating Fluxes
Euler: step 1
Solving compressibleSystem:

Post-updating compressibleSystem:

max(p): 98000, min(p): 98000
max(T): 278.552, min(T): 278.552
ExecutionTime = 10.85 s  ClockTime = 11 s

Courant Number Mean/Max = 0.00501622, 0.00501622
deltaT = 9.99255e-07
Time = 6.36985e-05

Calculating Fluxes
Euler: step 1
Solving compressibleSystem:

Post-updating compressibleSystem:

max(p): 98000, min(p): 98000
max(T): 278.552, min(T): 278.552
ExecutionTime = 11 s  ClockTime = 11 s

Courant Number Mean/Max = 0.00501622, 0.00501622
deltaT = 9.99255e-07
Time = 6.46977e-05

Calculating Fluxes
Euler: step 1
Solving compressibleSystem:

Post-updating compressibleSystem:

max(p): 98000, min(p): 98000
max(T): 278.552, min(T): 278.552
ExecutionTime = 11.15 s  ClockTime = 11 s

Courant Number Mean/Max = 0.00501622, 0.00501622
deltaT = 9.99255e-07
Time = 6.5697e-05

Calculating Fluxes
Euler: step 1
Solving compressibleSystem:

Post-updating compressibleSystem:

max(p): 98000, min(p): 98000
max(T): 278.552, min(T): 278.552
ExecutionTime = 11.29 s  ClockTime = 12 s

Courant Number Mean/Max = 0.00501622, 0.00501622
deltaT = 9.99255e-07
Time = 6.66962e-05

Calculating Fluxes
Euler: step 1
Solving compressibleSystem:

Post-updating compressibleSystem:

max(p): 98000, min(p): 98000
max(T): 278.552, min(T): 278.552
ExecutionTime = 11.45 s  ClockTime = 12 s

Courant Number Mean/Max = 0.00501622, 0.00501622
deltaT = 9.99255e-07
Time = 6.76955e-05

Calculating Fluxes
Euler: step 1
Solving compressibleSystem:

Post-updating compressibleSystem:

max(p): 98000, min(p): 98000
max(T): 278.552, min(T): 278.552
ExecutionTime = 11.6 s  ClockTime = 12 s

Courant Number Mean/Max = 0.00501622, 0.00501622
deltaT = 9.99255e-07
Time = 6.86947e-05

Calculating Fluxes
Euler: step 1
Solving compressibleSystem:

Post-updating compressibleSystem:

max(p): 98000, min(p): 98000
max(T): 278.552, min(T): 278.552
ExecutionTime = 11.75 s  ClockTime = 12 s

Courant Number Mean/Max = 0.00501622, 0.00501622
deltaT = 9.99255e-07
Time = 6.9694e-05

Calculating Fluxes
Euler: step 1
Solving compressibleSystem:

Post-updating compressibleSystem:

max(p): 98000, min(p): 98000
max(T): 278.552, min(T): 278.552
ExecutionTime = 11.89 s  ClockTime = 12 s

Courant Number Mean/Max = 0.00501622, 0.00501622
deltaT = 9.99255e-07
Time = 7.06933e-05

Calculating Fluxes
Euler: step 1
Solving compressibleSystem:

Post-updating compressibleSystem:

max(p): 98000, min(p): 98000
max(T): 278.552, min(T): 278.552
ExecutionTime = 12.05 s  ClockTime = 12 s

Courant Number Mean/Max = 0.00501622, 0.00501622
deltaT = 9.99255e-07
Time = 7.16925e-05

Calculating Fluxes
Euler: step 1
Solving compressibleSystem:

Post-updating compressibleSystem:

max(p): 98000, min(p): 98000
max(T): 278.552, min(T): 278.552
ExecutionTime = 12.2 s  ClockTime = 13 s

Courant Number Mean/Max = 0.00501622, 0.00501622
deltaT = 9.99255e-07
Time = 7.26918e-05

Calculating Fluxes
Euler: step 1
Solving compressibleSystem:

Post-updating compressibleSystem:

max(p): 98000, min(p): 98000
max(T): 278.552, min(T): 278.552
ExecutionTime = 12.35 s  ClockTime = 13 s

Courant Number Mean/Max = 0.00501622, 0.00501622
deltaT = 9.99255e-07
Time = 7.3691e-05

Calculating Fluxes
Euler: step 1
Solving compressibleSystem:

Post-updating compressibleSystem:

max(p): 98000, min(p): 98000
max(T): 278.552, min(T): 278.552
ExecutionTime = 12.5 s  ClockTime = 13 s

Courant Number Mean/Max = 0.00501622, 0.00501622
deltaT = 9.99255e-07
Time = 7.46903e-05

Calculating Fluxes
Euler: step 1
Solving compressibleSystem:

Post-updating compressibleSystem:

max(p): 98000, min(p): 98000
max(T): 278.552, min(T): 278.552
ExecutionTime = 12.65 s  ClockTime = 13 s

Courant Number Mean/Max = 0.00501622, 0.00501622
deltaT = 9.99255e-07
Time = 7.56895e-05

Calculating Fluxes
Euler: step 1
Solving compressibleSystem:

Post-updating compressibleSystem:

max(p): 98000, min(p): 98000
max(T): 278.552, min(T): 278.552
ExecutionTime = 12.81 s  ClockTime = 13 s

Courant Number Mean/Max = 0.00501622, 0.00501622
deltaT = 9.99255e-07
Time = 7.66888e-05

Calculating Fluxes
Euler: step 1
Solving compressibleSystem:

Post-updating compressibleSystem:

max(p): 98000, min(p): 98000
max(T): 278.552, min(T): 278.552
ExecutionTime = 12.96 s  ClockTime = 13 s

Courant Number Mean/Max = 0.00501622, 0.00501622
deltaT = 9.99255e-07
Time = 7.7688e-05

Calculating Fluxes
Euler: step 1
Solving compressibleSystem:

Post-updating compressibleSystem:

max(p): 98000, min(p): 98000
max(T): 278.552, min(T): 278.552
ExecutionTime = 13.11 s  ClockTime = 13 s

Courant Number Mean/Max = 0.00501622, 0.00501622
deltaT = 9.99255e-07
Time = 7.86873e-05

Calculating Fluxes
Euler: step 1
Solving compressibleSystem:

Post-updating compressibleSystem:

max(p): 98000, min(p): 98000
max(T): 278.552, min(T): 278.552
ExecutionTime = 13.26 s  ClockTime = 14 s

Courant Number Mean/Max = 0.00501622, 0.00501622
deltaT = 9.99255e-07
Time = 7.96865e-05

Calculating Fluxes
Euler: step 1
Solving compressibleSystem:

Post-updating compressibleSystem:

max(p): 98000, min(p): 98000
max(T): 278.552, min(T): 278.552
ExecutionTime = 13.42 s  ClockTime = 14 s

Courant Number Mean/Max = 0.00501622, 0.00501622
deltaT = 9.99255e-07
Time = 8.06858e-05

Calculating Fluxes
Euler: step 1
Solving compressibleSystem:

Post-updating compressibleSystem:

max(p): 98000, min(p): 98000
max(T): 278.552, min(T): 278.552
ExecutionTime = 13.56 s  ClockTime = 14 s

Courant Number Mean/Max = 0.00501622, 0.00501622
deltaT = 9.99255e-07
Time = 8.16851e-05

Calculating Fluxes
Euler: step 1
Solving compressibleSystem:

Post-updating compressibleSystem:

max(p): 98000, min(p): 98000
max(T): 278.552, min(T): 278.552
ExecutionTime = 13.71 s  ClockTime = 14 s

Courant Number Mean/Max = 0.00501622, 0.00501622
deltaT = 9.99255e-07
Time = 8.26843e-05

Calculating Fluxes
Euler: step 1
Solving compressibleSystem:

Post-updating compressibleSystem:

max(p): 98000, min(p): 98000
max(T): 278.552, min(T): 278.552
ExecutionTime = 13.86 s  ClockTime = 14 s

Courant Number Mean/Max = 0.00501622, 0.00501622
deltaT = 9.99255e-07
Time = 8.36836e-05

Calculating Fluxes
Euler: step 1
Solving compressibleSystem:

Post-updating compressibleSystem:

max(p): 98000, min(p): 98000
max(T): 278.552, min(T): 278.552
ExecutionTime = 14.01 s  ClockTime = 14 s

Courant Number Mean/Max = 0.00501622, 0.00501622
deltaT = 9.99255e-07
Time = 8.46828e-05

Calculating Fluxes
Euler: step 1
Solving compressibleSystem:

Post-updating compressibleSystem:

max(p): 98000, min(p): 98000
max(T): 278.552, min(T): 278.552
ExecutionTime = 14.15 s  ClockTime = 14 s

Courant Number Mean/Max = 0.00501622, 0.00501622
deltaT = 9.99255e-07
Time = 8.56821e-05

Calculating Fluxes
Euler: step 1
Solving compressibleSystem:

Post-updating compressibleSystem:

max(p): 98000, min(p): 98000
max(T): 278.552, min(T): 278.552
ExecutionTime = 14.3 s  ClockTime = 15 s

Courant Number Mean/Max = 0.00501622, 0.00501622
deltaT = 9.99255e-07
Time = 8.66813e-05

Calculating Fluxes
Euler: step 1
Solving compressibleSystem:

Post-updating compressibleSystem:

max(p): 98000, min(p): 98000
max(T): 278.552, min(T): 278.552
ExecutionTime = 14.45 s  ClockTime = 15 s

Courant Number Mean/Max = 0.00501622, 0.00501622
deltaT = 9.99255e-07
Time = 8.76806e-05

Calculating Fluxes
Euler: step 1
Solving compressibleSystem:

Post-updating compressibleSystem:

max(p): 98000, min(p): 98000
max(T): 278.552, min(T): 278.552
ExecutionTime = 14.6 s  ClockTime = 15 s

Courant Number Mean/Max = 0.00501622, 0.00501622
deltaT = 9.99255e-07
Time = 8.86798e-05

Calculating Fluxes
Euler: step 1
Solving compressibleSystem:

Post-updating compressibleSystem:

max(p): 98000, min(p): 98000
max(T): 278.552, min(T): 278.552
ExecutionTime = 14.75 s  ClockTime = 15 s

Courant Number Mean/Max = 0.00501622, 0.00501622
deltaT = 9.99255e-07
Time = 8.96791e-05

Calculating Fluxes
Euler: step 1
Solving compressibleSystem:

Post-updating compressibleSystem:

max(p): 98000, min(p): 98000
max(T): 278.552, min(T): 278.552
ExecutionTime = 14.91 s  ClockTime = 15 s

Courant Number Mean/Max = 0.00501622, 0.00501622
deltaT = 9.99255e-07
Time = 9.06783e-05

Calculating Fluxes
Euler: step 1
Solving compressibleSystem:

Post-updating compressibleSystem:

max(p): 98000, min(p): 98000
max(T): 278.552, min(T): 278.552
ExecutionTime = 15.06 s  ClockTime = 15 s

Courant Number Mean/Max = 0.00501622, 0.00501622
deltaT = 9.99255e-07
Time = 9.16776e-05

Calculating Fluxes
Euler: step 1
Solving compressibleSystem:

Post-updating compressibleSystem:

max(p): 98000, min(p): 98000
max(T): 278.552, min(T): 278.552
ExecutionTime = 15.21 s  ClockTime = 16 s

Courant Number Mean/Max = 0.00501622, 0.00501622
deltaT = 9.99255e-07
Time = 9.26769e-05

Calculating Fluxes
Euler: step 1
Solving compressibleSystem:

Post-updating compressibleSystem:

max(p): 98000, min(p): 98000
max(T): 278.552, min(T): 278.552
ExecutionTime = 15.36 s  ClockTime = 16 s

Courant Number Mean/Max = 0.00501622, 0.00501622
deltaT = 9.99255e-07
Time = 9.36761e-05

Calculating Fluxes
Euler: step 1
Solving compressibleSystem:

Post-updating compressibleSystem:

max(p): 98000, min(p): 98000
max(T): 278.552, min(T): 278.552
ExecutionTime = 15.52 s  ClockTime = 16 s

Courant Number Mean/Max = 0.00501622, 0.00501622
deltaT = 9.99255e-07
Time = 9.46754e-05

Calculating Fluxes
Euler: step 1
Solving compressibleSystem:

Post-updating compressibleSystem:

max(p): 98000, min(p): 98000
max(T): 278.552, min(T): 278.552
ExecutionTime = 15.67 s  ClockTime = 16 s

Courant Number Mean/Max = 0.00501622, 0.00501622
deltaT = 9.99255e-07
Time = 9.56746e-05

Calculating Fluxes
Euler: step 1
Solving compressibleSystem:

Post-updating compressibleSystem:

max(p): 98000, min(p): 98000
max(T): 278.552, min(T): 278.552
ExecutionTime = 15.81 s  ClockTime = 16 s

Courant Number Mean/Max = 0.00501622, 0.00501622
deltaT = 9.99255e-07
Time = 9.66739e-05

Calculating Fluxes
Euler: step 1
Solving compressibleSystem:

Post-updating compressibleSystem:

max(p): 98000, min(p): 98000
max(T): 278.552, min(T): 278.552
ExecutionTime = 15.96 s  ClockTime = 16 s

Courant Number Mean/Max = 0.00501622, 0.00501622
deltaT = 9.99255e-07
Time = 9.76731e-05

Calculating Fluxes
Euler: step 1
Solving compressibleSystem:

Post-updating compressibleSystem:

max(p): 98000, min(p): 98000
max(T): 278.552, min(T): 278.552
ExecutionTime = 16.12 s  ClockTime = 16 s

Courant Number Mean/Max = 0.00501622, 0.00501622
deltaT = 9.99255e-07
Time = 9.86724e-05

Calculating Fluxes
Euler: step 1
Solving compressibleSystem:

Post-updating compressibleSystem:

max(p): 98000, min(p): 98000
max(T): 278.552, min(T): 278.552
ExecutionTime = 16.26 s  ClockTime = 17 s

Courant Number Mean/Max = 0.00501622, 0.00501622
deltaT = 9.99255e-07
Time = 9.96716e-05

Calculating Fluxes
Euler: step 1
Solving compressibleSystem:

Post-updating compressibleSystem:

max(p): 98000, min(p): 98000
max(T): 278.552, min(T): 278.552
ExecutionTime = 16.41 s  ClockTime = 17 s

Courant Number Mean/Max = 0.00501622, 0.00501622
deltaT = 9.99255e-07
Time = 0.000100671

Calculating Fluxes
Euler: step 1
Solving compressibleSystem:

Post-updating compressibleSystem:

max(p): 98000, min(p): 98000
max(T): 278.552, min(T): 278.552
ExecutionTime = 16.56 s  ClockTime = 17 s

Courant Number Mean/Max = 0.00501622, 0.00501622
deltaT = 9.99255e-07
Time = 0.00010167

Calculating Fluxes
Euler: step 1
Solving compressibleSystem:

Post-updating compressibleSystem:

max(p): 98000, min(p): 98000
max(T): 278.552, min(T): 278.552
ExecutionTime = 16.72 s  ClockTime = 17 s

Courant Number Mean/Max = 0.00501622, 0.00501622
deltaT = 9.99255e-07
Time = 0.000102669

Calculating Fluxes
Euler: step 1
Solving compressibleSystem:

Post-updating compressibleSystem:

max(p): 98000, min(p): 98000
max(T): 278.552, min(T): 278.552
ExecutionTime = 16.87 s  ClockTime = 17 s

Courant Number Mean/Max = 0.00501622, 0.00501622
deltaT = 9.99255e-07
Time = 0.000103669

Calculating Fluxes
Euler: step 1
Solving compressibleSystem:

Post-updating compressibleSystem:

max(p): 98000, min(p): 98000
max(T): 278.552, min(T): 278.552
ExecutionTime = 17.02 s  ClockTime = 17 s

Courant Number Mean/Max = 0.00501622, 0.00501622
deltaT = 9.99255e-07
Time = 0.000104668

Calculating Fluxes
Euler: step 1
Solving compressibleSystem:

Post-updating compressibleSystem:

max(p): 98000, min(p): 98000
max(T): 278.552, min(T): 278.552
ExecutionTime = 17.17 s  ClockTime = 17 s

Courant Number Mean/Max = 0.00501622, 0.00501622
deltaT = 9.99255e-07
Time = 0.000105667

Calculating Fluxes
Euler: step 1
Solving compressibleSystem:

Post-updating compressibleSystem:

max(p): 98000, min(p): 98000
max(T): 278.552, min(T): 278.552
ExecutionTime = 17.33 s  ClockTime = 18 s

Courant Number Mean/Max = 0.00501622, 0.00501622
deltaT = 9.99255e-07
Time = 0.000106666

Calculating Fluxes
Euler: step 1
Solving compressibleSystem:

Post-updating compressibleSystem:

max(p): 98000, min(p): 98000
max(T): 278.552, min(T): 278.552
ExecutionTime = 17.48 s  ClockTime = 18 s

Courant Number Mean/Max = 0.00501622, 0.00501622
deltaT = 9.99255e-07
Time = 0.000107666

Calculating Fluxes
Euler: step 1
Solving compressibleSystem:

Post-updating compressibleSystem:

max(p): 98000, min(p): 98000
max(T): 278.552, min(T): 278.552
ExecutionTime = 17.63 s  ClockTime = 18 s

Courant Number Mean/Max = 0.00501622, 0.00501622
deltaT = 9.99255e-07
Time = 0.000108665

Calculating Fluxes
Euler: step 1
Solving compressibleSystem:

Post-updating compressibleSystem:

max(p): 98000, min(p): 98000
max(T): 278.552, min(T): 278.552
ExecutionTime = 17.77 s  ClockTime = 18 s

Courant Number Mean/Max = 0.00501622, 0.00501622
deltaT = 9.99255e-07
Time = 0.000109664

Calculating Fluxes
Euler: step 1
Solving compressibleSystem:

Post-updating compressibleSystem:

max(p): 98000, min(p): 98000
max(T): 278.552, min(T): 278.552
ExecutionTime = 17.92 s  ClockTime = 18 s

Courant Number Mean/Max = 0.00501622, 0.00501622
deltaT = 9.99255e-07
Time = 0.000110663

Calculating Fluxes
Euler: step 1
Solving compressibleSystem:

Post-updating compressibleSystem:

max(p): 98000, min(p): 98000
max(T): 278.552, min(T): 278.552
ExecutionTime = 18.07 s  ClockTime = 18 s

Courant Number Mean/Max = 0.00501622, 0.00501622
deltaT = 9.99255e-07
Time = 0.000111663

Calculating Fluxes
Euler: step 1
Solving compressibleSystem:

Post-updating compressibleSystem:

max(p): 98000, min(p): 98000
max(T): 278.552, min(T): 278.552
ExecutionTime = 18.22 s  ClockTime = 19 s

Courant Number Mean/Max = 0.00501622, 0.00501622
deltaT = 9.99255e-07
Time = 0.000112662

Calculating Fluxes
Euler: step 1
Solving compressibleSystem:

Post-updating compressibleSystem:

max(p): 98000, min(p): 98000
max(T): 278.552, min(T): 278.552
ExecutionTime = 18.38 s  ClockTime = 19 s

Courant Number Mean/Max = 0.00501622, 0.00501622
deltaT = 9.99255e-07
Time = 0.000113661

Calculating Fluxes
Euler: step 1
Solving compressibleSystem:

Post-updating compressibleSystem:

max(p): 98000, min(p): 98000
max(T): 278.552, min(T): 278.552
ExecutionTime = 18.54 s  ClockTime = 19 s

Courant Number Mean/Max = 0.00501622, 0.00501622
deltaT = 9.99255e-07
Time = 0.00011466

Calculating Fluxes
Euler: step 1
Solving compressibleSystem:

Post-updating compressibleSystem:

max(p): 98000, min(p): 98000
max(T): 278.552, min(T): 278.552
ExecutionTime = 18.7 s  ClockTime = 19 s

Courant Number Mean/Max = 0.00501622, 0.00501622
deltaT = 9.99255e-07
Time = 0.00011566

Calculating Fluxes
Euler: step 1
Solving compressibleSystem:

Post-updating compressibleSystem:

max(p): 98000, min(p): 98000
max(T): 278.552, min(T): 278.552
ExecutionTime = 18.86 s  ClockTime = 19 s

Courant Number Mean/Max = 0.00501622, 0.00501622
deltaT = 9.99255e-07
Time = 0.000116659

Calculating Fluxes
Euler: step 1
Solving compressibleSystem:

Post-updating compressibleSystem:

max(p): 98000, min(p): 98000
max(T): 278.552, min(T): 278.552
ExecutionTime = 19.01 s  ClockTime = 19 s

Courant Number Mean/Max = 0.00501622, 0.00501622
deltaT = 9.99255e-07
Time = 0.000117658

Calculating Fluxes
Euler: step 1
Solving compressibleSystem:

Post-updating compressibleSystem:

max(p): 98000, min(p): 98000
max(T): 278.552, min(T): 278.552
ExecutionTime = 19.17 s  ClockTime = 19 s

Courant Number Mean/Max = 0.00501622, 0.00501622
deltaT = 9.99255e-07
Time = 0.000118657

Calculating Fluxes
Euler: step 1
Solving compressibleSystem:

Post-updating compressibleSystem:

max(p): 98000, min(p): 98000
max(T): 278.552, min(T): 278.552
ExecutionTime = 19.33 s  ClockTime = 20 s

Courant Number Mean/Max = 0.00501622, 0.00501622
deltaT = 9.99255e-07
Time = 0.000119657

Calculating Fluxes
Euler: step 1
Solving compressibleSystem:

Post-updating compressibleSystem:

max(p): 98000, min(p): 98000
max(T): 278.552, min(T): 278.552
ExecutionTime = 19.5 s  ClockTime = 20 s

Courant Number Mean/Max = 0.00501622, 0.00501622
deltaT = 9.99255e-07
Time = 0.000120656

Calculating Fluxes
Euler: step 1
Solving compressibleSystem:

Post-updating compressibleSystem:

max(p): 98000, min(p): 98000
max(T): 278.552, min(T): 278.552
ExecutionTime = 19.66 s  ClockTime = 20 s

Courant Number Mean/Max = 0.00501622, 0.00501622
deltaT = 9.99255e-07
Time = 0.000121655

Calculating Fluxes
Euler: step 1
Solving compressibleSystem:

Post-updating compressibleSystem:

max(p): 98000, min(p): 98000
max(T): 278.552, min(T): 278.552
ExecutionTime = 19.82 s  ClockTime = 20 s

Courant Number Mean/Max = 0.00501622, 0.00501622
deltaT = 9.99255e-07
Time = 0.000122654

Calculating Fluxes
Euler: step 1
Solving compressibleSystem:

Post-updating compressibleSystem:

max(p): 98000, min(p): 98000
max(T): 278.552, min(T): 278.552
ExecutionTime = 19.99 s  ClockTime = 20 s

Courant Number Mean/Max = 0.00501622, 0.00501622
deltaT = 9.99255e-07
Time = 0.000123654

Calculating Fluxes
Euler: step 1
Solving compressibleSystem:

Post-updating compressibleSystem:

max(p): 98000, min(p): 98000
max(T): 278.552, min(T): 278.552
ExecutionTime = 20.14 s  ClockTime = 20 s

Courant Number Mean/Max = 0.00501622, 0.00501622
deltaT = 9.99255e-07
Time = 0.000124653

Calculating Fluxes
Euler: step 1
Solving compressibleSystem:

Post-updating compressibleSystem:

max(p): 98000, min(p): 98000
max(T): 278.552, min(T): 278.552
ExecutionTime = 20.3 s  ClockTime = 21 s

Courant Number Mean/Max = 0.00501622, 0.00501622
deltaT = 9.99255e-07
Time = 0.000125652

Calculating Fluxes
Euler: step 1
Solving compressibleSystem:

Post-updating compressibleSystem:

max(p): 98000, min(p): 98000
max(T): 278.552, min(T): 278.552
ExecutionTime = 20.45 s  ClockTime = 21 s

Courant Number Mean/Max = 0.00501622, 0.00501622
deltaT = 9.99255e-07
Time = 0.000126652

Calculating Fluxes
Euler: step 1
Solving compressibleSystem:

Post-updating compressibleSystem:

max(p): 98000, min(p): 98000
max(T): 278.552, min(T): 278.552
ExecutionTime = 20.61 s  ClockTime = 21 s

Courant Number Mean/Max = 0.00501622, 0.00501622
deltaT = 9.99255e-07
Time = 0.000127651

Calculating Fluxes
Euler: step 1
Solving compressibleSystem:

Post-updating compressibleSystem:

max(p): 98000, min(p): 98000
max(T): 278.552, min(T): 278.552
ExecutionTime = 20.78 s  ClockTime = 21 s

Courant Number Mean/Max = 0.00501622, 0.00501622
deltaT = 9.99255e-07
Time = 0.00012865

Calculating Fluxes
Euler: step 1
Solving compressibleSystem:

Post-updating compressibleSystem:

max(p): 98000, min(p): 98000
max(T): 278.552, min(T): 278.552
ExecutionTime = 20.94 s  ClockTime = 21 s

Courant Number Mean/Max = 0.00501622, 0.00501622
deltaT = 9.99255e-07
Time = 0.000129649

Calculating Fluxes
Euler: step 1
Solving compressibleSystem:

Post-updating compressibleSystem:

max(p): 98000, min(p): 98000
max(T): 278.552, min(T): 278.552
ExecutionTime = 21.1 s  ClockTime = 21 s

Courant Number Mean/Max = 0.00501622, 0.00501622
deltaT = 9.99255e-07
Time = 0.000130649

Calculating Fluxes
Euler: step 1
Solving compressibleSystem:

Post-updating compressibleSystem:

max(p): 98000, min(p): 98000
max(T): 278.552, min(T): 278.552
ExecutionTime = 21.26 s  ClockTime = 22 s

Courant Number Mean/Max = 0.00501622, 0.00501622
deltaT = 9.99255e-07
Time = 0.000131648

Calculating Fluxes
Euler: step 1
Solving compressibleSystem:

Post-updating compressibleSystem:

max(p): 98000, min(p): 98000
max(T): 278.552, min(T): 278.552
ExecutionTime = 21.42 s  ClockTime = 22 s

Courant Number Mean/Max = 0.00501622, 0.00501622
deltaT = 9.99255e-07
Time = 0.000132647

Calculating Fluxes
Euler: step 1
Solving compressibleSystem:

Post-updating compressibleSystem:

max(p): 98000, min(p): 98000
max(T): 278.552, min(T): 278.552
ExecutionTime = 21.58 s  ClockTime = 22 s

Courant Number Mean/Max = 0.00501622, 0.00501622
deltaT = 9.99255e-07
Time = 0.000133646

Calculating Fluxes
Euler: step 1
Solving compressibleSystem:

Post-updating compressibleSystem:

max(p): 98000, min(p): 98000
max(T): 278.552, min(T): 278.552
ExecutionTime = 21.74 s  ClockTime = 22 s

Courant Number Mean/Max = 0.00501622, 0.00501622
deltaT = 9.99255e-07
Time = 0.000134646

Calculating Fluxes
Euler: step 1
Solving compressibleSystem:

Post-updating compressibleSystem:

max(p): 98000, min(p): 98000
max(T): 278.552, min(T): 278.552
ExecutionTime = 21.9 s  ClockTime = 22 s

Courant Number Mean/Max = 0.00501622, 0.00501622
deltaT = 9.99255e-07
Time = 0.000135645

Calculating Fluxes
Euler: step 1
Solving compressibleSystem:

Post-updating compressibleSystem:

max(p): 98000, min(p): 98000
max(T): 278.552, min(T): 278.552
ExecutionTime = 22.06 s  ClockTime = 22 s

Courant Number Mean/Max = 0.00501622, 0.00501622
deltaT = 9.99255e-07
Time = 0.000136644

Calculating Fluxes
Euler: step 1
Solving compressibleSystem:

Post-updating compressibleSystem:

max(p): 98000, min(p): 98000
max(T): 278.552, min(T): 278.552
ExecutionTime = 22.22 s  ClockTime = 23 s

Courant Number Mean/Max = 0.00501622, 0.00501622
deltaT = 9.99255e-07
Time = 0.000137643

Calculating Fluxes
Euler: step 1
Solving compressibleSystem:

Post-updating compressibleSystem:

max(p): 98000, min(p): 98000
max(T): 278.552, min(T): 278.552
ExecutionTime = 22.38 s  ClockTime = 23 s

Courant Number Mean/Max = 0.00501622, 0.00501622
deltaT = 9.99255e-07
Time = 0.000138643

Calculating Fluxes
Euler: step 1
Solving compressibleSystem:

Post-updating compressibleSystem:

max(p): 98000, min(p): 98000
max(T): 278.552, min(T): 278.552
ExecutionTime = 22.55 s  ClockTime = 23 s

Courant Number Mean/Max = 0.00501622, 0.00501622
deltaT = 9.99255e-07
Time = 0.000139642

Calculating Fluxes
Euler: step 1
Solving compressibleSystem:

Post-updating compressibleSystem:

max(p): 98000, min(p): 98000
max(T): 278.552, min(T): 278.552
ExecutionTime = 22.71 s  ClockTime = 23 s

Courant Number Mean/Max = 0.00501622, 0.00501622
deltaT = 9.99255e-07
Time = 0.000140641

Calculating Fluxes
Euler: step 1
Solving compressibleSystem:

Post-updating compressibleSystem:

max(p): 98000, min(p): 98000
max(T): 278.552, min(T): 278.552
ExecutionTime = 22.86 s  ClockTime = 23 s

Courant Number Mean/Max = 0.00501622, 0.00501622
deltaT = 9.99255e-07
Time = 0.00014164

Calculating Fluxes
Euler: step 1
Solving compressibleSystem:

Post-updating compressibleSystem:

max(p): 98000, min(p): 98000
max(T): 278.552, min(T): 278.552
ExecutionTime = 23.03 s  ClockTime = 23 s

Courant Number Mean/Max = 0.00501622, 0.00501622
deltaT = 9.99255e-07
Time = 0.00014264

Calculating Fluxes
Euler: step 1
Solving compressibleSystem:

Post-updating compressibleSystem:

max(p): 98000, min(p): 98000
max(T): 278.552, min(T): 278.552
ExecutionTime = 23.19 s  ClockTime = 24 s

Courant Number Mean/Max = 0.00501622, 0.00501622
deltaT = 9.99255e-07
Time = 0.000143639

Calculating Fluxes
Euler: step 1
Solving compressibleSystem:

Post-updating compressibleSystem:

max(p): 98000, min(p): 98000
max(T): 278.552, min(T): 278.552
ExecutionTime = 23.35 s  ClockTime = 24 s

Courant Number Mean/Max = 0.00501622, 0.00501622
deltaT = 9.99255e-07
Time = 0.000144638

Calculating Fluxes
Euler: step 1
Solving compressibleSystem:

Post-updating compressibleSystem:

max(p): 98000, min(p): 98000
max(T): 278.552, min(T): 278.552
ExecutionTime = 23.51 s  ClockTime = 24 s

Courant Number Mean/Max = 0.00501622, 0.00501622
deltaT = 9.99255e-07
Time = 0.000145637

Calculating Fluxes
Euler: step 1
Solving compressibleSystem:

Post-updating compressibleSystem:

max(p): 98000, min(p): 98000
max(T): 278.552, min(T): 278.552
ExecutionTime = 23.67 s  ClockTime = 24 s

Courant Number Mean/Max = 0.00501622, 0.00501622
deltaT = 9.99255e-07
Time = 0.000146637

Calculating Fluxes
Euler: step 1
Solving compressibleSystem:

Post-updating compressibleSystem:

max(p): 98000, min(p): 98000
max(T): 278.552, min(T): 278.552
ExecutionTime = 23.83 s  ClockTime = 24 s

Courant Number Mean/Max = 0.00501622, 0.00501622
deltaT = 9.99255e-07
Time = 0.000147636

Calculating Fluxes
Euler: step 1
Solving compressibleSystem:

Post-updating compressibleSystem:

max(p): 98000, min(p): 98000
max(T): 278.552, min(T): 278.552
ExecutionTime = 23.99 s  ClockTime = 24 s

Courant Number Mean/Max = 0.00501622, 0.00501622
deltaT = 9.99255e-07
Time = 0.000148635

Calculating Fluxes
Euler: step 1
Solving compressibleSystem:

Post-updating compressibleSystem:

max(p): 98000, min(p): 98000
max(T): 278.552, min(T): 278.552
ExecutionTime = 24.16 s  ClockTime = 24 s

Courant Number Mean/Max = 0.00501622, 0.00501622
deltaT = 9.99255e-07
Time = 0.000149634

Calculating Fluxes
Euler: step 1
Solving compressibleSystem:

Post-updating compressibleSystem:

max(p): 98000, min(p): 98000
max(T): 278.552, min(T): 278.552
ExecutionTime = 24.32 s  ClockTime = 25 s

Courant Number Mean/Max = 0.00501622, 0.00501622
deltaT = 9.99255e-07
Time = 0.000150634

Calculating Fluxes
Euler: step 1
Solving compressibleSystem:

Post-updating compressibleSystem:

max(p): 98000, min(p): 98000
max(T): 278.552, min(T): 278.552
ExecutionTime = 24.47 s  ClockTime = 25 s

Courant Number Mean/Max = 0.00501622, 0.00501622
deltaT = 9.99255e-07
Time = 0.000151633

Calculating Fluxes
Euler: step 1
Solving compressibleSystem:

Post-updating compressibleSystem:

max(p): 98000, min(p): 98000
max(T): 278.552, min(T): 278.552
ExecutionTime = 24.63 s  ClockTime = 25 s

Courant Number Mean/Max = 0.00501622, 0.00501622
deltaT = 9.99255e-07
Time = 0.000152632

Calculating Fluxes
Euler: step 1
Solving compressibleSystem:

Post-updating compressibleSystem:

max(p): 98000, min(p): 98000
max(T): 278.552, min(T): 278.552
ExecutionTime = 24.79 s  ClockTime = 25 s

Courant Number Mean/Max = 0.00501622, 0.00501622
deltaT = 9.99255e-07
Time = 0.000153631

Calculating Fluxes
Euler: step 1
Solving compressibleSystem:

Post-updating compressibleSystem:

max(p): 98000, min(p): 98000
max(T): 278.552, min(T): 278.552
ExecutionTime = 24.94 s  ClockTime = 25 s

Courant Number Mean/Max = 0.00501622, 0.00501622
deltaT = 9.99255e-07
Time = 0.000154631

Calculating Fluxes
Euler: step 1
Solving compressibleSystem:

Post-updating compressibleSystem:

max(p): 98000, min(p): 98000
max(T): 278.552, min(T): 278.552
ExecutionTime = 25.1 s  ClockTime = 25 s

Courant Number Mean/Max = 0.00501622, 0.00501622
deltaT = 9.99255e-07
Time = 0.00015563

Calculating Fluxes
Euler: step 1
Solving compressibleSystem:

Post-updating compressibleSystem:

max(p): 98000, min(p): 98000
max(T): 278.552, min(T): 278.552
ExecutionTime = 25.26 s  ClockTime = 26 s

Courant Number Mean/Max = 0.00501622, 0.00501622
deltaT = 9.99255e-07
Time = 0.000156629

Calculating Fluxes
Euler: step 1
Solving compressibleSystem:

Post-updating compressibleSystem:

max(p): 98000, min(p): 98000
max(T): 278.552, min(T): 278.552
ExecutionTime = 25.43 s  ClockTime = 26 s

Courant Number Mean/Max = 0.00501622, 0.00501622
deltaT = 9.99255e-07
Time = 0.000157628

Calculating Fluxes
Euler: step 1
Solving compressibleSystem:

Post-updating compressibleSystem:

max(p): 98000, min(p): 98000
max(T): 278.552, min(T): 278.552
ExecutionTime = 25.58 s  ClockTime = 26 s

Courant Number Mean/Max = 0.00501622, 0.00501622
deltaT = 9.99255e-07
Time = 0.000158628

Calculating Fluxes
Euler: step 1
Solving compressibleSystem:

Post-updating compressibleSystem:

max(p): 98000, min(p): 98000
max(T): 278.552, min(T): 278.552
ExecutionTime = 25.74 s  ClockTime = 26 s

Courant Number Mean/Max = 0.00501622, 0.00501622
deltaT = 9.99255e-07
Time = 0.000159627

Calculating Fluxes
Euler: step 1
Solving compressibleSystem:

Post-updating compressibleSystem:

max(p): 98000, min(p): 98000
max(T): 278.552, min(T): 278.552
ExecutionTime = 25.91 s  ClockTime = 26 s

Courant Number Mean/Max = 0.00501622, 0.00501622
deltaT = 9.99255e-07
Time = 0.000160626

Calculating Fluxes
Euler: step 1
Solving compressibleSystem:

Post-updating compressibleSystem:

max(p): 98000, min(p): 98000
max(T): 278.552, min(T): 278.552
ExecutionTime = 26.07 s  ClockTime = 26 s

Courant Number Mean/Max = 0.00501622, 0.00501622
deltaT = 9.99255e-07
Time = 0.000161625

Calculating Fluxes
Euler: step 1
Solving compressibleSystem:

Post-updating compressibleSystem:

max(p): 98000, min(p): 98000
max(T): 278.552, min(T): 278.552
ExecutionTime = 26.23 s  ClockTime = 27 s

Courant Number Mean/Max = 0.00501622, 0.00501622
deltaT = 9.99255e-07
Time = 0.000162625

Calculating Fluxes
Euler: step 1
Solving compressibleSystem:

Post-updating compressibleSystem:

max(p): 98000, min(p): 98000
max(T): 278.552, min(T): 278.552
ExecutionTime = 26.39 s  ClockTime = 27 s

Courant Number Mean/Max = 0.00501622, 0.00501622
deltaT = 9.99255e-07
Time = 0.000163624

Calculating Fluxes
Euler: step 1
Solving compressibleSystem:

Post-updating compressibleSystem:

max(p): 98000, min(p): 98000
max(T): 278.552, min(T): 278.552
ExecutionTime = 26.55 s  ClockTime = 27 s

Courant Number Mean/Max = 0.00501622, 0.00501622
deltaT = 9.99255e-07
Time = 0.000164623

Calculating Fluxes
Euler: step 1
Solving compressibleSystem:

Post-updating compressibleSystem:

max(p): 98000, min(p): 98000
max(T): 278.552, min(T): 278.552
ExecutionTime = 26.71 s  ClockTime = 27 s

Courant Number Mean/Max = 0.00501622, 0.00501622
deltaT = 9.99255e-07
Time = 0.000165622

Calculating Fluxes
Euler: step 1
Solving compressibleSystem:

Post-updating compressibleSystem:

max(p): 98000, min(p): 98000
max(T): 278.552, min(T): 278.552
ExecutionTime = 26.86 s  ClockTime = 27 s

Courant Number Mean/Max = 0.00501622, 0.00501622
deltaT = 9.99255e-07
Time = 0.000166622

Calculating Fluxes
Euler: step 1
Solving compressibleSystem:

Post-updating compressibleSystem:

max(p): 98000, min(p): 98000
max(T): 278.552, min(T): 278.552
ExecutionTime = 27.03 s  ClockTime = 27 s

Courant Number Mean/Max = 0.00501622, 0.00501622
deltaT = 9.99255e-07
Time = 0.000167621

Calculating Fluxes
Euler: step 1
Solving compressibleSystem:

Post-updating compressibleSystem:

max(p): 98000, min(p): 98000
max(T): 278.552, min(T): 278.552
ExecutionTime = 27.18 s  ClockTime = 28 s

Courant Number Mean/Max = 0.00501622, 0.00501622
deltaT = 9.99255e-07
Time = 0.00016862

Calculating Fluxes
Euler: step 1
Solving compressibleSystem:

Post-updating compressibleSystem:

max(p): 98000, min(p): 98000
max(T): 278.552, min(T): 278.552
ExecutionTime = 27.35 s  ClockTime = 28 s

Courant Number Mean/Max = 0.00501622, 0.00501622
deltaT = 9.99255e-07
Time = 0.000169619

Calculating Fluxes
Euler: step 1
Solving compressibleSystem:

Post-updating compressibleSystem:

max(p): 98000, min(p): 98000
max(T): 278.552, min(T): 278.552
ExecutionTime = 27.5 s  ClockTime = 28 s

Courant Number Mean/Max = 0.00501622, 0.00501622
deltaT = 9.99255e-07
Time = 0.000170619

Calculating Fluxes
Euler: step 1
Solving compressibleSystem:

Post-updating compressibleSystem:

max(p): 98000, min(p): 98000
max(T): 278.552, min(T): 278.552
ExecutionTime = 27.66 s  ClockTime = 28 s

Courant Number Mean/Max = 0.00501622, 0.00501622
deltaT = 9.99255e-07
Time = 0.000171618

Calculating Fluxes
Euler: step 1
Solving compressibleSystem:

Post-updating compressibleSystem:

max(p): 98000, min(p): 98000
max(T): 278.552, min(T): 278.552
ExecutionTime = 27.84 s  ClockTime = 28 s

Courant Number Mean/Max = 0.00501622, 0.00501622
deltaT = 9.99255e-07
Time = 0.000172617

Calculating Fluxes
Euler: step 1
Solving compressibleSystem:

Post-updating compressibleSystem:

max(p): 98000, min(p): 98000
max(T): 278.552, min(T): 278.552
ExecutionTime = 28 s  ClockTime = 28 s

Courant Number Mean/Max = 0.00501622, 0.00501622
deltaT = 9.99255e-07
Time = 0.000173616

Calculating Fluxes
Euler: step 1
Solving compressibleSystem:

Post-updating compressibleSystem:

max(p): 98000, min(p): 98000
max(T): 278.552, min(T): 278.552
ExecutionTime = 28.16 s  ClockTime = 28 s

Courant Number Mean/Max = 0.00501622, 0.00501622
deltaT = 9.99255e-07
Time = 0.000174616

Calculating Fluxes
Euler: step 1
Solving compressibleSystem:

Post-updating compressibleSystem:

max(p): 98000, min(p): 98000
max(T): 278.552, min(T): 278.552
ExecutionTime = 28.32 s  ClockTime = 29 s

Courant Number Mean/Max = 0.00501622, 0.00501622
deltaT = 9.99255e-07
Time = 0.000175615

Calculating Fluxes
Euler: step 1
Solving compressibleSystem:

Post-updating compressibleSystem:

max(p): 98000, min(p): 98000
max(T): 278.552, min(T): 278.552
ExecutionTime = 28.49 s  ClockTime = 29 s

Courant Number Mean/Max = 0.00501622, 0.00501622
deltaT = 9.99255e-07
Time = 0.000176614

Calculating Fluxes
Euler: step 1
Solving compressibleSystem:

Post-updating compressibleSystem:

max(p): 98000, min(p): 98000
max(T): 278.552, min(T): 278.552
ExecutionTime = 28.65 s  ClockTime = 29 s

Courant Number Mean/Max = 0.00501622, 0.00501622
deltaT = 9.99255e-07
Time = 0.000177613

Calculating Fluxes
Euler: step 1
Solving compressibleSystem:

Post-updating compressibleSystem:

max(p): 98000, min(p): 98000
max(T): 278.552, min(T): 278.552
ExecutionTime = 28.82 s  ClockTime = 29 s

Courant Number Mean/Max = 0.00501622, 0.00501622
deltaT = 9.99255e-07
Time = 0.000178613

Calculating Fluxes
Euler: step 1
Solving compressibleSystem:

Post-updating compressibleSystem:

max(p): 98000, min(p): 98000
max(T): 278.552, min(T): 278.552
ExecutionTime = 28.98 s  ClockTime = 29 s

Courant Number Mean/Max = 0.00501622, 0.00501622
deltaT = 9.99255e-07
Time = 0.000179612

Calculating Fluxes
Euler: step 1
Solving compressibleSystem:

Post-updating compressibleSystem:

max(p): 98000, min(p): 98000
max(T): 278.552, min(T): 278.552
ExecutionTime = 29.14 s  ClockTime = 29 s

Courant Number Mean/Max = 0.00501622, 0.00501622
deltaT = 9.99255e-07
Time = 0.000180611

Calculating Fluxes
Euler: step 1
Solving compressibleSystem:

Post-updating compressibleSystem:

max(p): 98000, min(p): 98000
max(T): 278.552, min(T): 278.552
ExecutionTime = 29.3 s  ClockTime = 30 s

Courant Number Mean/Max = 0.00501622, 0.00501622
deltaT = 9.99255e-07
Time = 0.000181611

Calculating Fluxes
Euler: step 1
Solving compressibleSystem:

Post-updating compressibleSystem:

max(p): 98000, min(p): 98000
max(T): 278.552, min(T): 278.552
ExecutionTime = 29.47 s  ClockTime = 30 s

Courant Number Mean/Max = 0.00501622, 0.00501622
deltaT = 9.99255e-07
Time = 0.00018261

Calculating Fluxes
Euler: step 1
Solving compressibleSystem:

Post-updating compressibleSystem:

max(p): 98000, min(p): 98000
max(T): 278.552, min(T): 278.552
ExecutionTime = 29.64 s  ClockTime = 30 s

Courant Number Mean/Max = 0.00501622, 0.00501622
deltaT = 9.99255e-07
Time = 0.000183609

Calculating Fluxes
Euler: step 1
Solving compressibleSystem:

Post-updating compressibleSystem:

max(p): 98000, min(p): 98000
max(T): 278.552, min(T): 278.552
ExecutionTime = 29.8 s  ClockTime = 30 s

Courant Number Mean/Max = 0.00501622, 0.00501622
deltaT = 9.99255e-07
Time = 0.000184608

Calculating Fluxes
Euler: step 1
Solving compressibleSystem:

Post-updating compressibleSystem:

max(p): 98000, min(p): 98000
max(T): 278.552, min(T): 278.552
ExecutionTime = 29.97 s  ClockTime = 30 s

Courant Number Mean/Max = 0.00501622, 0.00501622
deltaT = 9.99255e-07
Time = 0.000185608

Calculating Fluxes
Euler: step 1
Solving compressibleSystem:

Post-updating compressibleSystem:

max(p): 98000, min(p): 98000
max(T): 278.552, min(T): 278.552
ExecutionTime = 30.12 s  ClockTime = 30 s

Courant Number Mean/Max = 0.00501622, 0.00501622
deltaT = 9.99255e-07
Time = 0.000186607

Calculating Fluxes
Euler: step 1
Solving compressibleSystem:

Post-updating compressibleSystem:

max(p): 98000, min(p): 98000
max(T): 278.552, min(T): 278.552
ExecutionTime = 30.29 s  ClockTime = 31 s

Courant Number Mean/Max = 0.00501622, 0.00501622
deltaT = 9.99255e-07
Time = 0.000187606

Calculating Fluxes
Euler: step 1
Solving compressibleSystem:

Post-updating compressibleSystem:

max(p): 98000, min(p): 98000
max(T): 278.552, min(T): 278.552
ExecutionTime = 30.45 s  ClockTime = 31 s

Courant Number Mean/Max = 0.00501622, 0.00501622
deltaT = 9.99255e-07
Time = 0.000188605

Calculating Fluxes
Euler: step 1
Solving compressibleSystem:

Post-updating compressibleSystem:

max(p): 98000, min(p): 98000
max(T): 278.552, min(T): 278.552
ExecutionTime = 30.62 s  ClockTime = 31 s

Courant Number Mean/Max = 0.00501622, 0.00501622
deltaT = 9.99255e-07
Time = 0.000189605

Calculating Fluxes
Euler: step 1
Solving compressibleSystem:

Post-updating compressibleSystem:

max(p): 98000, min(p): 98000
max(T): 278.552, min(T): 278.552
ExecutionTime = 30.78 s  ClockTime = 31 s

Courant Number Mean/Max = 0.00501622, 0.00501622
deltaT = 9.99255e-07
Time = 0.000190604

Calculating Fluxes
Euler: step 1
Solving compressibleSystem:

Post-updating compressibleSystem:

max(p): 98000, min(p): 98000
max(T): 278.552, min(T): 278.552
ExecutionTime = 30.94 s  ClockTime = 31 s

Courant Number Mean/Max = 0.00501622, 0.00501622
deltaT = 9.99255e-07
Time = 0.000191603

Calculating Fluxes
Euler: step 1
Solving compressibleSystem:

Post-updating compressibleSystem:

max(p): 98000, min(p): 98000
max(T): 278.552, min(T): 278.552
ExecutionTime = 31.11 s  ClockTime = 31 s

Courant Number Mean/Max = 0.00501622, 0.00501622
deltaT = 9.99255e-07
Time = 0.000192602

Calculating Fluxes
Euler: step 1
Solving compressibleSystem:

Post-updating compressibleSystem:

max(p): 98000, min(p): 98000
max(T): 278.552, min(T): 278.552
ExecutionTime = 31.27 s  ClockTime = 32 s

Courant Number Mean/Max = 0.00501622, 0.00501622
deltaT = 9.99255e-07
Time = 0.000193602

Calculating Fluxes
Euler: step 1
Solving compressibleSystem:

Post-updating compressibleSystem:

max(p): 98000, min(p): 98000
max(T): 278.552, min(T): 278.552
ExecutionTime = 31.42 s  ClockTime = 32 s

Courant Number Mean/Max = 0.00501622, 0.00501622
deltaT = 9.99255e-07
Time = 0.000194601

Calculating Fluxes
Euler: step 1
Solving compressibleSystem:

Post-updating compressibleSystem:

max(p): 98000, min(p): 98000
max(T): 278.552, min(T): 278.552
ExecutionTime = 31.59 s  ClockTime = 32 s

Courant Number Mean/Max = 0.00501622, 0.00501622
deltaT = 9.99255e-07
Time = 0.0001956

Calculating Fluxes
Euler: step 1
Solving compressibleSystem:

Post-updating compressibleSystem:

max(p): 98000, min(p): 98000
max(T): 278.552, min(T): 278.552
ExecutionTime = 31.75 s  ClockTime = 32 s

Courant Number Mean/Max = 0.00501622, 0.00501622
deltaT = 9.99255e-07
Time = 0.000196599

Calculating Fluxes
Euler: step 1
Solving compressibleSystem:

Post-updating compressibleSystem:

max(p): 98000, min(p): 98000
max(T): 278.552, min(T): 278.552
ExecutionTime = 31.91 s  ClockTime = 32 s

Courant Number Mean/Max = 0.00501622, 0.00501622
deltaT = 9.99255e-07
Time = 0.000197599

Calculating Fluxes
Euler: step 1
Solving compressibleSystem:

Post-updating compressibleSystem:

max(p): 98000, min(p): 98000
max(T): 278.552, min(T): 278.552
ExecutionTime = 32.08 s  ClockTime = 32 s

Courant Number Mean/Max = 0.00501622, 0.00501622
deltaT = 9.99255e-07
Time = 0.000198598

Calculating Fluxes
Euler: step 1
Solving compressibleSystem:

Post-updating compressibleSystem:

max(p): 98000, min(p): 98000
max(T): 278.552, min(T): 278.552
ExecutionTime = 32.25 s  ClockTime = 33 s

Courant Number Mean/Max = 0.00501622, 0.00501622
deltaT = 9.99255e-07
Time = 0.000199597

Calculating Fluxes
Euler: step 1
Solving compressibleSystem:

Post-updating compressibleSystem:

max(p): 98000, min(p): 98000
max(T): 278.552, min(T): 278.552
ExecutionTime = 32.42 s  ClockTime = 33 s

Courant Number Mean/Max = 0.00501622, 0.00501622
deltaT = 9.99255e-07
Time = 0.000200596

Calculating Fluxes
Euler: step 1
Solving compressibleSystem:

Post-updating compressibleSystem:

max(p): 98000, min(p): 98000
max(T): 278.552, min(T): 278.552
ExecutionTime = 32.58 s  ClockTime = 33 s

Courant Number Mean/Max = 0.00501622, 0.00501622
deltaT = 9.99255e-07
Time = 0.000201596

Calculating Fluxes
Euler: step 1
Solving compressibleSystem:

Post-updating compressibleSystem:

max(p): 98000, min(p): 98000
max(T): 278.552, min(T): 278.552
ExecutionTime = 32.75 s  ClockTime = 33 s

Courant Number Mean/Max = 0.00501622, 0.00501622
deltaT = 9.99255e-07
Time = 0.000202595

Calculating Fluxes
Euler: step 1
Solving compressibleSystem:

Post-updating compressibleSystem:

max(p): 98000, min(p): 98000
max(T): 278.552, min(T): 278.552
ExecutionTime = 32.91 s  ClockTime = 33 s

Courant Number Mean/Max = 0.00501622, 0.00501622
deltaT = 9.99255e-07
Time = 0.000203594

Calculating Fluxes
Euler: step 1
Solving compressibleSystem:

Post-updating compressibleSystem:

max(p): 98000, min(p): 98000
max(T): 278.552, min(T): 278.552
ExecutionTime = 33.07 s  ClockTime = 33 s

Courant Number Mean/Max = 0.00501622, 0.00501622
deltaT = 9.99255e-07
Time = 0.000204593

Calculating Fluxes
Euler: step 1
Solving compressibleSystem:

Post-updating compressibleSystem:

max(p): 98000, min(p): 98000
max(T): 278.552, min(T): 278.552
ExecutionTime = 33.23 s  ClockTime = 34 s

Courant Number Mean/Max = 0.00501622, 0.00501622
deltaT = 9.99255e-07
Time = 0.000205593

Calculating Fluxes
Euler: step 1
Solving compressibleSystem:

Post-updating compressibleSystem:

max(p): 98000, min(p): 98000
max(T): 278.552, min(T): 278.552
ExecutionTime = 33.4 s  ClockTime = 34 s

Courant Number Mean/Max = 0.00501622, 0.00501622
deltaT = 9.99255e-07
Time = 0.000206592

Calculating Fluxes
Euler: step 1
Solving compressibleSystem:

Post-updating compressibleSystem:

max(p): 98000, min(p): 98000
max(T): 278.552, min(T): 278.552
ExecutionTime = 33.56 s  ClockTime = 34 s

Courant Number Mean/Max = 0.00501622, 0.00501622
deltaT = 9.99255e-07
Time = 0.000207591

Calculating Fluxes
Euler: step 1
Solving compressibleSystem:

Post-updating compressibleSystem:

max(p): 98000, min(p): 98000
max(T): 278.552, min(T): 278.552
ExecutionTime = 33.72 s  ClockTime = 34 s

Courant Number Mean/Max = 0.00501622, 0.00501622
deltaT = 9.99255e-07
Time = 0.00020859

Calculating Fluxes
Euler: step 1
Solving compressibleSystem:

Post-updating compressibleSystem:

max(p): 98000, min(p): 98000
max(T): 278.552, min(T): 278.552
ExecutionTime = 33.88 s  ClockTime = 34 s

Courant Number Mean/Max = 0.00501622, 0.00501622
deltaT = 9.99255e-07
Time = 0.00020959

Calculating Fluxes
Euler: step 1
Solving compressibleSystem:

Post-updating compressibleSystem:

max(p): 98000, min(p): 98000
max(T): 278.552, min(T): 278.552
ExecutionTime = 34.05 s  ClockTime = 34 s

Courant Number Mean/Max = 0.00501622, 0.00501622
deltaT = 9.99255e-07
Time = 0.000210589

Calculating Fluxes
Euler: step 1
Solving compressibleSystem:

Post-updating compressibleSystem:

max(p): 98000, min(p): 98000
max(T): 278.552, min(T): 278.552
ExecutionTime = 34.21 s  ClockTime = 35 s

Courant Number Mean/Max = 0.00501622, 0.00501622
deltaT = 9.99255e-07
Time = 0.000211588

Calculating Fluxes
Euler: step 1
Solving compressibleSystem:

Post-updating compressibleSystem:

max(p): 98000, min(p): 98000
max(T): 278.552, min(T): 278.552
ExecutionTime = 34.38 s  ClockTime = 35 s

Courant Number Mean/Max = 0.00501622, 0.00501622
deltaT = 9.99255e-07
Time = 0.000212587

Calculating Fluxes
Euler: step 1
Solving compressibleSystem:

Post-updating compressibleSystem:

max(p): 98000, min(p): 98000
max(T): 278.552, min(T): 278.552
ExecutionTime = 34.54 s  ClockTime = 35 s

Courant Number Mean/Max = 0.00501622, 0.00501622
deltaT = 9.99255e-07
Time = 0.000213587

Calculating Fluxes
Euler: step 1
Solving compressibleSystem:

Post-updating compressibleSystem:

max(p): 98000, min(p): 98000
max(T): 278.552, min(T): 278.552
ExecutionTime = 34.7 s  ClockTime = 35 s

Courant Number Mean/Max = 0.00501622, 0.00501622
deltaT = 9.99255e-07
Time = 0.000214586

Calculating Fluxes
Euler: step 1
Solving compressibleSystem:

Post-updating compressibleSystem:

max(p): 98000, min(p): 98000
max(T): 278.552, min(T): 278.552
ExecutionTime = 34.85 s  ClockTime = 35 s

Courant Number Mean/Max = 0.00501622, 0.00501622
deltaT = 9.99255e-07
Time = 0.000215585

Calculating Fluxes
Euler: step 1
Solving compressibleSystem:

Post-updating compressibleSystem:

max(p): 98000, min(p): 98000
max(T): 278.552, min(T): 278.552
ExecutionTime = 35.02 s  ClockTime = 35 s

Courant Number Mean/Max = 0.00501622, 0.00501622
deltaT = 9.99255e-07
Time = 0.000216584

Calculating Fluxes
Euler: step 1
Solving compressibleSystem:

Post-updating compressibleSystem:

max(p): 98000, min(p): 98000
max(T): 278.552, min(T): 278.552
ExecutionTime = 35.18 s  ClockTime = 36 s

Courant Number Mean/Max = 0.00501622, 0.00501622
deltaT = 9.99255e-07
Time = 0.000217584

Calculating Fluxes
Euler: step 1
Solving compressibleSystem:

Post-updating compressibleSystem:

max(p): 98000, min(p): 98000
max(T): 278.552, min(T): 278.552
ExecutionTime = 35.35 s  ClockTime = 36 s

Courant Number Mean/Max = 0.00501622, 0.00501622
deltaT = 9.99255e-07
Time = 0.000218583

Calculating Fluxes
Euler: step 1
Solving compressibleSystem:

Post-updating compressibleSystem:

max(p): 98000, min(p): 98000
max(T): 278.552, min(T): 278.552
ExecutionTime = 35.5 s  ClockTime = 36 s

Courant Number Mean/Max = 0.00501622, 0.00501622
deltaT = 9.99255e-07
Time = 0.000219582

Calculating Fluxes
Euler: step 1
Solving compressibleSystem:

Post-updating compressibleSystem:

max(p): 98000, min(p): 98000
max(T): 278.552, min(T): 278.552
ExecutionTime = 35.67 s  ClockTime = 36 s

Courant Number Mean/Max = 0.00501622, 0.00501622
deltaT = 9.99255e-07
Time = 0.000220581

Calculating Fluxes
Euler: step 1
Solving compressibleSystem:

Post-updating compressibleSystem:

max(p): 98000, min(p): 98000
max(T): 278.552, min(T): 278.552
ExecutionTime = 35.83 s  ClockTime = 36 s

Courant Number Mean/Max = 0.00501622, 0.00501622
deltaT = 9.99255e-07
Time = 0.000221581

Calculating Fluxes
Euler: step 1
Solving compressibleSystem:

Post-updating compressibleSystem:

max(p): 98000, min(p): 98000
max(T): 278.552, min(T): 278.552
ExecutionTime = 35.99 s  ClockTime = 36 s

Courant Number Mean/Max = 0.00501622, 0.00501622
deltaT = 9.99255e-07
Time = 0.00022258

Calculating Fluxes
Euler: step 1
Solving compressibleSystem:

Post-updating compressibleSystem:

max(p): 98000, min(p): 98000
max(T): 278.552, min(T): 278.552
ExecutionTime = 36.16 s  ClockTime = 36 s

Courant Number Mean/Max = 0.00501622, 0.00501622
deltaT = 9.99255e-07
Time = 0.000223579

Calculating Fluxes
Euler: step 1
Solving compressibleSystem:

Post-updating compressibleSystem:

max(p): 98000, min(p): 98000
max(T): 278.552, min(T): 278.552
ExecutionTime = 36.32 s  ClockTime = 37 s

Courant Number Mean/Max = 0.00501622, 0.00501622
deltaT = 9.99255e-07
Time = 0.000224578

Calculating Fluxes
Euler: step 1
Solving compressibleSystem:

Post-updating compressibleSystem:

max(p): 98000, min(p): 98000
max(T): 278.552, min(T): 278.552
ExecutionTime = 36.47 s  ClockTime = 37 s

Courant Number Mean/Max = 0.00501622, 0.00501622
deltaT = 9.99255e-07
Time = 0.000225578

Calculating Fluxes
Euler: step 1
Solving compressibleSystem:

Post-updating compressibleSystem:

max(p): 98000, min(p): 98000
max(T): 278.552, min(T): 278.552
ExecutionTime = 36.63 s  ClockTime = 37 s

Courant Number Mean/Max = 0.00501622, 0.00501622
deltaT = 9.99255e-07
Time = 0.000226577

Calculating Fluxes
Euler: step 1
Solving compressibleSystem:

Post-updating compressibleSystem:

max(p): 98000, min(p): 98000
max(T): 278.552, min(T): 278.552
ExecutionTime = 36.8 s  ClockTime = 37 s

Courant Number Mean/Max = 0.00501622, 0.00501622
deltaT = 9.99255e-07
Time = 0.000227576

Calculating Fluxes
Euler: step 1
Solving compressibleSystem:

Post-updating compressibleSystem:

max(p): 98000, min(p): 98000
max(T): 278.552, min(T): 278.552
ExecutionTime = 36.95 s  ClockTime = 37 s

Courant Number Mean/Max = 0.00501622, 0.00501622
deltaT = 9.99255e-07
Time = 0.000228575

Calculating Fluxes
Euler: step 1
Solving compressibleSystem:

Post-updating compressibleSystem:

max(p): 98000, min(p): 98000
max(T): 278.552, min(T): 278.552
ExecutionTime = 37.12 s  ClockTime = 37 s

Courant Number Mean/Max = 0.00501622, 0.00501622
deltaT = 9.99255e-07
Time = 0.000229575

Calculating Fluxes
Euler: step 1
Solving compressibleSystem:

Post-updating compressibleSystem:

max(p): 98000, min(p): 98000
max(T): 278.552, min(T): 278.552
ExecutionTime = 37.28 s  ClockTime = 38 s

Courant Number Mean/Max = 0.00501622, 0.00501622
deltaT = 9.99255e-07
Time = 0.000230574

Calculating Fluxes
Euler: step 1
Solving compressibleSystem:

Post-updating compressibleSystem:

max(p): 98000, min(p): 98000
max(T): 278.552, min(T): 278.552
ExecutionTime = 37.44 s  ClockTime = 38 s

Courant Number Mean/Max = 0.00501622, 0.00501622
deltaT = 9.99255e-07
Time = 0.000231573

Calculating Fluxes
Euler: step 1
Solving compressibleSystem:

Post-updating compressibleSystem:

max(p): 98000, min(p): 98000
max(T): 278.552, min(T): 278.552
ExecutionTime = 37.61 s  ClockTime = 38 s

Courant Number Mean/Max = 0.00501622, 0.00501622
deltaT = 9.99255e-07
Time = 0.000232572

Calculating Fluxes
Euler: step 1
Solving compressibleSystem:

Post-updating compressibleSystem:

max(p): 98000, min(p): 98000
max(T): 278.552, min(T): 278.552
ExecutionTime = 37.77 s  ClockTime = 38 s

Courant Number Mean/Max = 0.00501622, 0.00501622
deltaT = 9.99255e-07
Time = 0.000233572

Calculating Fluxes
Euler: step 1
Solving compressibleSystem:

Post-updating compressibleSystem:

max(p): 98000, min(p): 98000
max(T): 278.552, min(T): 278.552
ExecutionTime = 37.93 s  ClockTime = 38 s

Courant Number Mean/Max = 0.00501622, 0.00501622
deltaT = 9.99255e-07
Time = 0.000234571

Calculating Fluxes
Euler: step 1
Solving compressibleSystem:

Post-updating compressibleSystem:

max(p): 98000, min(p): 98000
max(T): 278.552, min(T): 278.552
ExecutionTime = 38.09 s  ClockTime = 38 s

Courant Number Mean/Max = 0.00501622, 0.00501622
deltaT = 9.99255e-07
Time = 0.00023557

Calculating Fluxes
Euler: step 1
Solving compressibleSystem:

Post-updating compressibleSystem:

max(p): 98000, min(p): 98000
max(T): 278.552, min(T): 278.552
ExecutionTime = 38.26 s  ClockTime = 39 s

Courant Number Mean/Max = 0.00501622, 0.00501622
deltaT = 9.99255e-07
Time = 0.00023657

Calculating Fluxes
Euler: step 1
Solving compressibleSystem:

Post-updating compressibleSystem:

max(p): 98000, min(p): 98000
max(T): 278.552, min(T): 278.552
ExecutionTime = 38.41 s  ClockTime = 39 s

Courant Number Mean/Max = 0.00501622, 0.00501622
deltaT = 9.99255e-07
Time = 0.000237569

Calculating Fluxes
Euler: step 1
Solving compressibleSystem:

Post-updating compressibleSystem:

max(p): 98000, min(p): 98000
max(T): 278.552, min(T): 278.552
ExecutionTime = 38.58 s  ClockTime = 39 s

Courant Number Mean/Max = 0.00501622, 0.00501622
deltaT = 9.99255e-07
Time = 0.000238568

Calculating Fluxes
Euler: step 1
Solving compressibleSystem:

Post-updating compressibleSystem:

max(p): 98000, min(p): 98000
max(T): 278.552, min(T): 278.552
ExecutionTime = 38.73 s  ClockTime = 39 s

Courant Number Mean/Max = 0.00501622, 0.00501622
deltaT = 9.99255e-07
Time = 0.000239567

Calculating Fluxes
Euler: step 1
Solving compressibleSystem:

Post-updating compressibleSystem:

max(p): 98000, min(p): 98000
max(T): 278.552, min(T): 278.552
ExecutionTime = 38.89 s  ClockTime = 39 s

Courant Number Mean/Max = 0.00501622, 0.00501622
deltaT = 9.99255e-07
Time = 0.000240567

Calculating Fluxes
Euler: step 1
Solving compressibleSystem:

Post-updating compressibleSystem:

max(p): 98000, min(p): 98000
max(T): 278.552, min(T): 278.552
ExecutionTime = 39.06 s  ClockTime = 39 s

Courant Number Mean/Max = 0.00501622, 0.00501622
deltaT = 9.99255e-07
Time = 0.000241566

Calculating Fluxes
Euler: step 1
Solving compressibleSystem:

Post-updating compressibleSystem:

max(p): 98000, min(p): 98000
max(T): 278.552, min(T): 278.552
ExecutionTime = 39.21 s  ClockTime = 40 s

Courant Number Mean/Max = 0.00501622, 0.00501622
deltaT = 9.99255e-07
Time = 0.000242565

Calculating Fluxes
Euler: step 1
Solving compressibleSystem:

Post-updating compressibleSystem:

max(p): 98000, min(p): 98000
max(T): 278.552, min(T): 278.552
ExecutionTime = 39.37 s  ClockTime = 40 s

Courant Number Mean/Max = 0.00501622, 0.00501622
deltaT = 9.99255e-07
Time = 0.000243564

Calculating Fluxes
Euler: step 1
Solving compressibleSystem:

Post-updating compressibleSystem:

max(p): 98000, min(p): 98000
max(T): 278.552, min(T): 278.552
ExecutionTime = 39.52 s  ClockTime = 40 s

Courant Number Mean/Max = 0.00501622, 0.00501622
deltaT = 9.99255e-07
Time = 0.000244564

Calculating Fluxes
Euler: step 1
Solving compressibleSystem:

Post-updating compressibleSystem:

max(p): 98000, min(p): 98000
max(T): 278.552, min(T): 278.552
ExecutionTime = 39.68 s  ClockTime = 40 s

Courant Number Mean/Max = 0.00501622, 0.00501622
deltaT = 9.99255e-07
Time = 0.000245563

Calculating Fluxes
Euler: step 1
Solving compressibleSystem:

Post-updating compressibleSystem:

max(p): 98000, min(p): 98000
max(T): 278.552, min(T): 278.552
ExecutionTime = 39.84 s  ClockTime = 40 s

Courant Number Mean/Max = 0.00501622, 0.00501622
deltaT = 9.99255e-07
Time = 0.000246562

Calculating Fluxes
Euler: step 1
Solving compressibleSystem:

Post-updating compressibleSystem:

max(p): 98000, min(p): 98000
max(T): 278.552, min(T): 278.552
ExecutionTime = 39.99 s  ClockTime = 40 s

Courant Number Mean/Max = 0.00501622, 0.00501622
deltaT = 9.99255e-07
Time = 0.000247561

Calculating Fluxes
Euler: step 1
Solving compressibleSystem:

Post-updating compressibleSystem:

max(p): 98000, min(p): 98000
max(T): 278.552, min(T): 278.552
ExecutionTime = 40.15 s  ClockTime = 40 s

Courant Number Mean/Max = 0.00501622, 0.00501622
deltaT = 9.99255e-07
Time = 0.000248561

Calculating Fluxes
Euler: step 1
Solving compressibleSystem:

Post-updating compressibleSystem:

max(p): 98000, min(p): 98000
max(T): 278.552, min(T): 278.552
ExecutionTime = 40.3 s  ClockTime = 41 s

Courant Number Mean/Max = 0.00501622, 0.00501622
deltaT = 9.99255e-07
Time = 0.00024956

Calculating Fluxes
Euler: step 1
Solving compressibleSystem:

Post-updating compressibleSystem:

max(p): 98000, min(p): 98000
max(T): 278.552, min(T): 278.552
ExecutionTime = 40.46 s  ClockTime = 41 s

Courant Number Mean/Max = 0.00501622, 0.00501622
deltaT = 9.99255e-07
Time = 0.000250559

Calculating Fluxes
Euler: step 1
Solving compressibleSystem:

Post-updating compressibleSystem:

max(p): 98000, min(p): 98000
max(T): 278.552, min(T): 278.552
ExecutionTime = 40.62 s  ClockTime = 41 s

Courant Number Mean/Max = 0.00501622, 0.00501622
deltaT = 9.99255e-07
Time = 0.000251558

Calculating Fluxes
Euler: step 1
Solving compressibleSystem:

Post-updating compressibleSystem:

max(p): 98000, min(p): 98000
max(T): 278.552, min(T): 278.552
ExecutionTime = 40.78 s  ClockTime = 41 s

Courant Number Mean/Max = 0.00501622, 0.00501622
deltaT = 9.99255e-07
Time = 0.000252558

Calculating Fluxes
Euler: step 1
Solving compressibleSystem:

Post-updating compressibleSystem:

max(p): 98000, min(p): 98000
max(T): 278.552, min(T): 278.552
ExecutionTime = 40.94 s  ClockTime = 41 s

Courant Number Mean/Max = 0.00501622, 0.00501622
deltaT = 9.99255e-07
Time = 0.000253557

Calculating Fluxes
Euler: step 1
Solving compressibleSystem:

Post-updating compressibleSystem:

max(p): 98000, min(p): 98000
max(T): 278.552, min(T): 278.552
ExecutionTime = 41.09 s  ClockTime = 41 s

Courant Number Mean/Max = 0.00501622, 0.00501622
deltaT = 9.99255e-07
Time = 0.000254556

Calculating Fluxes
Euler: step 1
Solving compressibleSystem:

Post-updating compressibleSystem:

max(p): 98000, min(p): 98000
max(T): 278.552, min(T): 278.552
ExecutionTime = 41.25 s  ClockTime = 42 s

Courant Number Mean/Max = 0.00501622, 0.00501622
deltaT = 9.99255e-07
Time = 0.000255555

Calculating Fluxes
Euler: step 1
Solving compressibleSystem:

Post-updating compressibleSystem:

max(p): 98000, min(p): 98000
max(T): 278.552, min(T): 278.552
ExecutionTime = 41.41 s  ClockTime = 42 s

Courant Number Mean/Max = 0.00501622, 0.00501622
deltaT = 9.99255e-07
Time = 0.000256555

Calculating Fluxes
Euler: step 1
Solving compressibleSystem:

Post-updating compressibleSystem:

max(p): 98000, min(p): 98000
max(T): 278.552, min(T): 278.552
ExecutionTime = 41.57 s  ClockTime = 42 s

Courant Number Mean/Max = 0.00501622, 0.00501622
deltaT = 9.99255e-07
Time = 0.000257554

Calculating Fluxes
Euler: step 1
Solving compressibleSystem:

Post-updating compressibleSystem:

max(p): 98000, min(p): 98000
max(T): 278.552, min(T): 278.552
ExecutionTime = 41.73 s  ClockTime = 42 s

Courant Number Mean/Max = 0.00501622, 0.00501622
deltaT = 9.99255e-07
Time = 0.000258553

Calculating Fluxes
Euler: step 1
Solving compressibleSystem:

Post-updating compressibleSystem:

max(p): 98000, min(p): 98000
max(T): 278.552, min(T): 278.552
ExecutionTime = 41.89 s  ClockTime = 42 s

Courant Number Mean/Max = 0.00501622, 0.00501622
deltaT = 9.99255e-07
Time = 0.000259552

Calculating Fluxes
Euler: step 1
Solving compressibleSystem:

Post-updating compressibleSystem:

max(p): 98000, min(p): 98000
max(T): 278.552, min(T): 278.552
ExecutionTime = 42.05 s  ClockTime = 42 s

Courant Number Mean/Max = 0.00501622, 0.00501622
deltaT = 9.99255e-07
Time = 0.000260552

Calculating Fluxes
Euler: step 1
Solving compressibleSystem:

Post-updating compressibleSystem:

max(p): 98000, min(p): 98000
max(T): 278.552, min(T): 278.552
ExecutionTime = 42.2 s  ClockTime = 43 s

Courant Number Mean/Max = 0.00501622, 0.00501622
[...]

Calculating Fluxes
Euler: step 1
Solving compressibleSystem:

Post-updating compressibleSystem:

max(p): 98000, min(p): 98000
max(T): 278.552, min(T): 278.552
ExecutionTime = 1527.06 s  ClockTime = 1529 s

Courant Number Mean/Max = 0.00501996, 0.00501996
deltaT = 1e-06
Time = 0.009932

Calculating Fluxes
Euler: step 1
Solving compressibleSystem:

Post-updating compressibleSystem:

max(p): 98000, min(p): 98000
max(T): 278.552, min(T): 278.552
ExecutionTime = 1527.2 s  ClockTime = 1530 s

Courant Number Mean/Max = 0.00501996, 0.00501996
deltaT = 1e-06
Time = 0.009933

Calculating Fluxes
Euler: step 1
Solving compressibleSystem:

Post-updating compressibleSystem:

max(p): 98000, min(p): 98000
max(T): 278.552, min(T): 278.552
ExecutionTime = 1527.36 s  ClockTime = 1530 s

Courant Number Mean/Max = 0.00501996, 0.00501996
deltaT = 1e-06
Time = 0.009934

Calculating Fluxes
Euler: step 1
Solving compressibleSystem:

Post-updating compressibleSystem:

max(p): 98000, min(p): 98000
max(T): 278.552, min(T): 278.552
ExecutionTime = 1527.51 s  ClockTime = 1530 s

Courant Number Mean/Max = 0.00501996, 0.00501996
deltaT = 1e-06
Time = 0.009935

Calculating Fluxes
Euler: step 1
Solving compressibleSystem:

Post-updating compressibleSystem:

max(p): 98000, min(p): 98000
max(T): 278.552, min(T): 278.552
ExecutionTime = 1527.66 s  ClockTime = 1530 s

Courant Number Mean/Max = 0.00501996, 0.00501996
deltaT = 1e-06
Time = 0.009936

Calculating Fluxes
Euler: step 1
Solving compressibleSystem:

Post-updating compressibleSystem:

max(p): 98000, min(p): 98000
max(T): 278.552, min(T): 278.552
ExecutionTime = 1527.82 s  ClockTime = 1530 s

Courant Number Mean/Max = 0.00501996, 0.00501996
deltaT = 1e-06
Time = 0.009937

Calculating Fluxes
Euler: step 1
Solving compressibleSystem:

Post-updating compressibleSystem:

max(p): 98000, min(p): 98000
max(T): 278.552, min(T): 278.552
ExecutionTime = 1527.97 s  ClockTime = 1530 s

Courant Number Mean/Max = 0.00501996, 0.00501996
deltaT = 1e-06
Time = 0.009938

Calculating Fluxes
Euler: step 1
Solving compressibleSystem:

Post-updating compressibleSystem:

max(p): 98000, min(p): 98000
max(T): 278.552, min(T): 278.552
ExecutionTime = 1528.12 s  ClockTime = 1530 s

Courant Number Mean/Max = 0.00501996, 0.00501996
deltaT = 1e-06
Time = 0.009939

Calculating Fluxes
Euler: step 1
Solving compressibleSystem:

Post-updating compressibleSystem:

max(p): 98000, min(p): 98000
max(T): 278.552, min(T): 278.552
ExecutionTime = 1528.28 s  ClockTime = 1531 s

Courant Number Mean/Max = 0.00501996, 0.00501996
deltaT = 1e-06
Time = 0.00994

Calculating Fluxes
Euler: step 1
Solving compressibleSystem:

Post-updating compressibleSystem:

max(p): 98000, min(p): 98000
max(T): 278.552, min(T): 278.552
ExecutionTime = 1528.42 s  ClockTime = 1531 s

Courant Number Mean/Max = 0.00501996, 0.00501996
deltaT = 1e-06
Time = 0.009941

Calculating Fluxes
Euler: step 1
Solving compressibleSystem:

Post-updating compressibleSystem:

max(p): 98000, min(p): 98000
max(T): 278.552, min(T): 278.552
ExecutionTime = 1528.58 s  ClockTime = 1531 s

Courant Number Mean/Max = 0.00501996, 0.00501996
deltaT = 1e-06
Time = 0.009942

Calculating Fluxes
Euler: step 1
Solving compressibleSystem:

Post-updating compressibleSystem:

max(p): 98000, min(p): 98000
max(T): 278.552, min(T): 278.552
ExecutionTime = 1528.74 s  ClockTime = 1531 s

Courant Number Mean/Max = 0.00501996, 0.00501996
deltaT = 1e-06
Time = 0.009943

Calculating Fluxes
Euler: step 1
Solving compressibleSystem:

Post-updating compressibleSystem:

max(p): 98000, min(p): 98000
max(T): 278.552, min(T): 278.552
ExecutionTime = 1528.9 s  ClockTime = 1531 s

Courant Number Mean/Max = 0.00501996, 0.00501996
deltaT = 1e-06
Time = 0.009944

Calculating Fluxes
Euler: step 1
Solving compressibleSystem:

Post-updating compressibleSystem:

max(p): 98000, min(p): 98000
max(T): 278.552, min(T): 278.552
ExecutionTime = 1529.04 s  ClockTime = 1531 s

Courant Number Mean/Max = 0.00501996, 0.00501996
deltaT = 1e-06
Time = 0.009945

Calculating Fluxes
Euler: step 1
Solving compressibleSystem:

Post-updating compressibleSystem:

max(p): 98000, min(p): 98000
max(T): 278.552, min(T): 278.552
ExecutionTime = 1529.2 s  ClockTime = 1532 s

Courant Number Mean/Max = 0.00501996, 0.00501996
deltaT = 1e-06
Time = 0.009946

Calculating Fluxes
Euler: step 1
Solving compressibleSystem:

Post-updating compressibleSystem:

max(p): 98000, min(p): 98000
max(T): 278.552, min(T): 278.552
ExecutionTime = 1529.34 s  ClockTime = 1532 s

Courant Number Mean/Max = 0.00501996, 0.00501996
deltaT = 1e-06
Time = 0.009947

Calculating Fluxes
Euler: step 1
Solving compressibleSystem:

Post-updating compressibleSystem:

max(p): 98000, min(p): 98000
max(T): 278.552, min(T): 278.552
ExecutionTime = 1529.5 s  ClockTime = 1532 s

Courant Number Mean/Max = 0.00501996, 0.00501996
deltaT = 1e-06
Time = 0.009948

Calculating Fluxes
Euler: step 1
Solving compressibleSystem:

Post-updating compressibleSystem:

max(p): 98000, min(p): 98000
max(T): 278.552, min(T): 278.552
ExecutionTime = 1529.66 s  ClockTime = 1532 s

Courant Number Mean/Max = 0.00501996, 0.00501996
deltaT = 1e-06
Time = 0.009949

Calculating Fluxes
Euler: step 1
Solving compressibleSystem:

Post-updating compressibleSystem:

max(p): 98000, min(p): 98000
max(T): 278.552, min(T): 278.552
ExecutionTime = 1529.81 s  ClockTime = 1532 s

Courant Number Mean/Max = 0.00501996, 0.00501996
deltaT = 1e-06
Time = 0.00995

Calculating Fluxes
Euler: step 1
Solving compressibleSystem:

Post-updating compressibleSystem:

max(p): 98000, min(p): 98000
max(T): 278.552, min(T): 278.552
ExecutionTime = 1529.95 s  ClockTime = 1532 s

Courant Number Mean/Max = 0.00501996, 0.00501996
deltaT = 1e-06
Time = 0.009951

Calculating Fluxes
Euler: step 1
Solving compressibleSystem:

Post-updating compressibleSystem:

max(p): 98000, min(p): 98000
max(T): 278.552, min(T): 278.552
ExecutionTime = 1530.11 s  ClockTime = 1532 s

Courant Number Mean/Max = 0.00501996, 0.00501996
deltaT = 1e-06
Time = 0.009952

Calculating Fluxes
Euler: step 1
Solving compressibleSystem:

Post-updating compressibleSystem:

max(p): 98000, min(p): 98000
max(T): 278.552, min(T): 278.552
ExecutionTime = 1530.26 s  ClockTime = 1533 s

Courant Number Mean/Max = 0.00501996, 0.00501996
deltaT = 1e-06
Time = 0.009953

Calculating Fluxes
Euler: step 1
Solving compressibleSystem:

Post-updating compressibleSystem:

max(p): 98000, min(p): 98000
max(T): 278.552, min(T): 278.552
ExecutionTime = 1530.42 s  ClockTime = 1533 s

Courant Number Mean/Max = 0.00501996, 0.00501996
deltaT = 1e-06
Time = 0.009954

Calculating Fluxes
Euler: step 1
Solving compressibleSystem:

Post-updating compressibleSystem:

max(p): 98000, min(p): 98000
max(T): 278.552, min(T): 278.552
ExecutionTime = 1530.57 s  ClockTime = 1533 s

Courant Number Mean/Max = 0.00501996, 0.00501996
deltaT = 1e-06
Time = 0.009955

Calculating Fluxes
Euler: step 1
Solving compressibleSystem:

Post-updating compressibleSystem:

max(p): 98000, min(p): 98000
max(T): 278.552, min(T): 278.552
ExecutionTime = 1530.73 s  ClockTime = 1533 s

Courant Number Mean/Max = 0.00501996, 0.00501996
deltaT = 1e-06
Time = 0.009956

Calculating Fluxes
Euler: step 1
Solving compressibleSystem:

Post-updating compressibleSystem:

max(p): 98000, min(p): 98000
max(T): 278.552, min(T): 278.552
ExecutionTime = 1530.88 s  ClockTime = 1533 s

Courant Number Mean/Max = 0.00501996, 0.00501996
deltaT = 1e-06
Time = 0.009957

Calculating Fluxes
Euler: step 1
Solving compressibleSystem:

Post-updating compressibleSystem:

max(p): 98000, min(p): 98000
max(T): 278.552, min(T): 278.552
ExecutionTime = 1531.03 s  ClockTime = 1533 s

Courant Number Mean/Max = 0.00501996, 0.00501996
deltaT = 1e-06
Time = 0.009958

Calculating Fluxes
Euler: step 1
Solving compressibleSystem:

Post-updating compressibleSystem:

max(p): 98000, min(p): 98000
max(T): 278.552, min(T): 278.552
ExecutionTime = 1531.18 s  ClockTime = 1534 s

Courant Number Mean/Max = 0.00501996, 0.00501996
deltaT = 1e-06
Time = 0.009959

Calculating Fluxes
Euler: step 1
Solving compressibleSystem:

Post-updating compressibleSystem:

max(p): 98000, min(p): 98000
max(T): 278.552, min(T): 278.552
ExecutionTime = 1531.33 s  ClockTime = 1534 s

Courant Number Mean/Max = 0.00501996, 0.00501996
deltaT = 1e-06
Time = 0.00996

Calculating Fluxes
Euler: step 1
Solving compressibleSystem:

Post-updating compressibleSystem:

max(p): 98000, min(p): 98000
max(T): 278.552, min(T): 278.552
ExecutionTime = 1531.49 s  ClockTime = 1534 s

Courant Number Mean/Max = 0.00501996, 0.00501996
deltaT = 1e-06
Time = 0.009961

Calculating Fluxes
Euler: step 1
Solving compressibleSystem:

Post-updating compressibleSystem:

max(p): 98000, min(p): 98000
max(T): 278.552, min(T): 278.552
ExecutionTime = 1531.65 s  ClockTime = 1534 s

Courant Number Mean/Max = 0.00501996, 0.00501996
deltaT = 1e-06
Time = 0.009962

Calculating Fluxes
Euler: step 1
Solving compressibleSystem:

Post-updating compressibleSystem:

max(p): 98000, min(p): 98000
max(T): 278.552, min(T): 278.552
ExecutionTime = 1531.8 s  ClockTime = 1534 s

Courant Number Mean/Max = 0.00501996, 0.00501996
deltaT = 1e-06
Time = 0.009963

Calculating Fluxes
Euler: step 1
Solving compressibleSystem:

Post-updating compressibleSystem:

max(p): 98000, min(p): 98000
max(T): 278.552, min(T): 278.552
ExecutionTime = 1531.95 s  ClockTime = 1534 s

Courant Number Mean/Max = 0.00501996, 0.00501996
deltaT = 1e-06
Time = 0.009964

Calculating Fluxes
Euler: step 1
Solving compressibleSystem:

Post-updating compressibleSystem:

max(p): 98000, min(p): 98000
max(T): 278.552, min(T): 278.552
ExecutionTime = 1532.1 s  ClockTime = 1534 s

Courant Number Mean/Max = 0.00501996, 0.00501996
deltaT = 1e-06
Time = 0.009965

Calculating Fluxes
Euler: step 1
Solving compressibleSystem:

Post-updating compressibleSystem:

max(p): 98000, min(p): 98000
max(T): 278.552, min(T): 278.552
ExecutionTime = 1532.25 s  ClockTime = 1535 s

Courant Number Mean/Max = 0.00501996, 0.00501996
deltaT = 1e-06
Time = 0.009966

Calculating Fluxes
Euler: step 1
Solving compressibleSystem:

Post-updating compressibleSystem:

max(p): 98000, min(p): 98000
max(T): 278.552, min(T): 278.552
ExecutionTime = 1532.4 s  ClockTime = 1535 s

Courant Number Mean/Max = 0.00501996, 0.00501996
deltaT = 1e-06
Time = 0.009967

Calculating Fluxes
Euler: step 1
Solving compressibleSystem:

Post-updating compressibleSystem:

max(p): 98000, min(p): 98000
max(T): 278.552, min(T): 278.552
ExecutionTime = 1532.55 s  ClockTime = 1535 s

Courant Number Mean/Max = 0.00501996, 0.00501996
deltaT = 1e-06
Time = 0.009968

Calculating Fluxes
Euler: step 1
Solving compressibleSystem:

Post-updating compressibleSystem:

max(p): 98000, min(p): 98000
max(T): 278.552, min(T): 278.552
ExecutionTime = 1532.7 s  ClockTime = 1535 s

Courant Number Mean/Max = 0.00501996, 0.00501996
deltaT = 1e-06
Time = 0.009969

Calculating Fluxes
Euler: step 1
Solving compressibleSystem:

Post-updating compressibleSystem:

max(p): 98000, min(p): 98000
max(T): 278.552, min(T): 278.552
ExecutionTime = 1532.85 s  ClockTime = 1535 s

Courant Number Mean/Max = 0.00501996, 0.00501996
deltaT = 1e-06
Time = 0.00997

Calculating Fluxes
Euler: step 1
Solving compressibleSystem:

Post-updating compressibleSystem:

max(p): 98000, min(p): 98000
max(T): 278.552, min(T): 278.552
ExecutionTime = 1533 s  ClockTime = 1535 s

Courant Number Mean/Max = 0.00501996, 0.00501996
deltaT = 1e-06
Time = 0.009971

Calculating Fluxes
Euler: step 1
Solving compressibleSystem:

Post-updating compressibleSystem:

max(p): 98000, min(p): 98000
max(T): 278.552, min(T): 278.552
ExecutionTime = 1533.15 s  ClockTime = 1535 s

Courant Number Mean/Max = 0.00501996, 0.00501996
deltaT = 1e-06
Time = 0.009972

Calculating Fluxes
Euler: step 1
Solving compressibleSystem:

Post-updating compressibleSystem:

max(p): 98000, min(p): 98000
max(T): 278.552, min(T): 278.552
ExecutionTime = 1533.3 s  ClockTime = 1536 s

Courant Number Mean/Max = 0.00501996, 0.00501996
deltaT = 1e-06
Time = 0.009973

Calculating Fluxes
Euler: step 1
Solving compressibleSystem:

Post-updating compressibleSystem:

max(p): 98000, min(p): 98000
max(T): 278.552, min(T): 278.552
ExecutionTime = 1533.45 s  ClockTime = 1536 s

Courant Number Mean/Max = 0.00501996, 0.00501996
deltaT = 1e-06
Time = 0.009974

Calculating Fluxes
Euler: step 1
Solving compressibleSystem:

Post-updating compressibleSystem:

max(p): 98000, min(p): 98000
max(T): 278.552, min(T): 278.552
ExecutionTime = 1533.6 s  ClockTime = 1536 s

Courant Number Mean/Max = 0.00501996, 0.00501996
deltaT = 1e-06
Time = 0.009975

Calculating Fluxes
Euler: step 1
Solving compressibleSystem:

Post-updating compressibleSystem:

max(p): 98000, min(p): 98000
max(T): 278.552, min(T): 278.552
ExecutionTime = 1533.76 s  ClockTime = 1536 s

Courant Number Mean/Max = 0.00501996, 0.00501996
deltaT = 1e-06
Time = 0.009976

Calculating Fluxes
Euler: step 1
Solving compressibleSystem:

Post-updating compressibleSystem:

max(p): 98000, min(p): 98000
max(T): 278.552, min(T): 278.552
ExecutionTime = 1533.91 s  ClockTime = 1536 s

Courant Number Mean/Max = 0.00501996, 0.00501996
deltaT = 1e-06
Time = 0.009977

Calculating Fluxes
Euler: step 1
Solving compressibleSystem:

Post-updating compressibleSystem:

max(p): 98000, min(p): 98000
max(T): 278.552, min(T): 278.552
ExecutionTime = 1534.06 s  ClockTime = 1536 s

Courant Number Mean/Max = 0.00501996, 0.00501996
deltaT = 1e-06
Time = 0.009978

Calculating Fluxes
Euler: step 1
Solving compressibleSystem:

Post-updating compressibleSystem:

max(p): 98000, min(p): 98000
max(T): 278.552, min(T): 278.552
ExecutionTime = 1534.22 s  ClockTime = 1537 s

Courant Number Mean/Max = 0.00501996, 0.00501996
deltaT = 1e-06
Time = 0.009979

Calculating Fluxes
Euler: step 1
Solving compressibleSystem:

Post-updating compressibleSystem:

max(p): 98000, min(p): 98000
max(T): 278.552, min(T): 278.552
ExecutionTime = 1534.37 s  ClockTime = 1537 s

Courant Number Mean/Max = 0.00501996, 0.00501996
deltaT = 1e-06
Time = 0.00998

Calculating Fluxes
Euler: step 1
Solving compressibleSystem:

Post-updating compressibleSystem:

max(p): 98000, min(p): 98000
max(T): 278.552, min(T): 278.552
ExecutionTime = 1534.52 s  ClockTime = 1537 s

Courant Number Mean/Max = 0.00501996, 0.00501996
deltaT = 1e-06
Time = 0.009981

Calculating Fluxes
Euler: step 1
Solving compressibleSystem:

Post-updating compressibleSystem:

max(p): 98000, min(p): 98000
max(T): 278.552, min(T): 278.552
ExecutionTime = 1534.68 s  ClockTime = 1537 s

Courant Number Mean/Max = 0.00501996, 0.00501996
deltaT = 1e-06
Time = 0.009982

Calculating Fluxes
Euler: step 1
Solving compressibleSystem:

Post-updating compressibleSystem:

max(p): 98000, min(p): 98000
max(T): 278.552, min(T): 278.552
ExecutionTime = 1534.83 s  ClockTime = 1537 s

Courant Number Mean/Max = 0.00501996, 0.00501996
deltaT = 1e-06
Time = 0.009983

Calculating Fluxes
Euler: step 1
Solving compressibleSystem:

Post-updating compressibleSystem:

max(p): 98000, min(p): 98000
max(T): 278.552, min(T): 278.552
ExecutionTime = 1534.98 s  ClockTime = 1537 s

Courant Number Mean/Max = 0.00501996, 0.00501996
deltaT = 1e-06
Time = 0.009984

Calculating Fluxes
Euler: step 1
Solving compressibleSystem:

Post-updating compressibleSystem:

max(p): 98000, min(p): 98000
max(T): 278.552, min(T): 278.552
ExecutionTime = 1535.13 s  ClockTime = 1537 s

Courant Number Mean/Max = 0.00501996, 0.00501996
deltaT = 1e-06
Time = 0.009985

Calculating Fluxes
Euler: step 1
Solving compressibleSystem:

Post-updating compressibleSystem:

max(p): 98000, min(p): 98000
max(T): 278.552, min(T): 278.552
ExecutionTime = 1535.29 s  ClockTime = 1538 s

Courant Number Mean/Max = 0.00501996, 0.00501996
deltaT = 1e-06
Time = 0.009986

Calculating Fluxes
Euler: step 1
Solving compressibleSystem:

Post-updating compressibleSystem:

max(p): 98000, min(p): 98000
max(T): 278.552, min(T): 278.552
ExecutionTime = 1535.44 s  ClockTime = 1538 s

Courant Number Mean/Max = 0.00501996, 0.00501996
deltaT = 1e-06
Time = 0.009987

Calculating Fluxes
Euler: step 1
Solving compressibleSystem:

Post-updating compressibleSystem:

max(p): 98000, min(p): 98000
max(T): 278.552, min(T): 278.552
ExecutionTime = 1535.59 s  ClockTime = 1538 s

Courant Number Mean/Max = 0.00501996, 0.00501996
deltaT = 1e-06
Time = 0.009988

Calculating Fluxes
Euler: step 1
Solving compressibleSystem:

Post-updating compressibleSystem:

max(p): 98000, min(p): 98000
max(T): 278.552, min(T): 278.552
ExecutionTime = 1535.74 s  ClockTime = 1538 s

Courant Number Mean/Max = 0.00501996, 0.00501996
deltaT = 1e-06
Time = 0.009989

Calculating Fluxes
Euler: step 1
Solving compressibleSystem:

Post-updating compressibleSystem:

max(p): 98000, min(p): 98000
max(T): 278.552, min(T): 278.552
ExecutionTime = 1535.9 s  ClockTime = 1538 s

Courant Number Mean/Max = 0.00501996, 0.00501996
deltaT = 1e-06
Time = 0.00999

Calculating Fluxes
Euler: step 1
Solving compressibleSystem:

Post-updating compressibleSystem:

max(p): 98000, min(p): 98000
max(T): 278.552, min(T): 278.552
ExecutionTime = 1536.05 s  ClockTime = 1538 s

Courant Number Mean/Max = 0.00501996, 0.00501996
deltaT = 1e-06
Time = 0.009991

Calculating Fluxes
Euler: step 1
Solving compressibleSystem:

Post-updating compressibleSystem:

max(p): 98000, min(p): 98000
max(T): 278.552, min(T): 278.552
ExecutionTime = 1536.2 s  ClockTime = 1539 s

Courant Number Mean/Max = 0.00501996, 0.00501996
deltaT = 1e-06
Time = 0.009992

Calculating Fluxes
Euler: step 1
Solving compressibleSystem:

Post-updating compressibleSystem:

max(p): 98000, min(p): 98000
max(T): 278.552, min(T): 278.552
ExecutionTime = 1536.35 s  ClockTime = 1539 s

Courant Number Mean/Max = 0.00501996, 0.00501996
deltaT = 1e-06
Time = 0.009993

Calculating Fluxes
Euler: step 1
Solving compressibleSystem:

Post-updating compressibleSystem:

max(p): 98000, min(p): 98000
max(T): 278.552, min(T): 278.552
ExecutionTime = 1536.5 s  ClockTime = 1539 s

Courant Number Mean/Max = 0.00501996, 0.00501996
deltaT = 1e-06
Time = 0.009994

Calculating Fluxes
Euler: step 1
Solving compressibleSystem:

Post-updating compressibleSystem:

max(p): 98000, min(p): 98000
max(T): 278.552, min(T): 278.552
ExecutionTime = 1536.65 s  ClockTime = 1539 s

Courant Number Mean/Max = 0.00501996, 0.00501996
deltaT = 1e-06
Time = 0.009995

Calculating Fluxes
Euler: step 1
Solving compressibleSystem:

Post-updating compressibleSystem:

max(p): 98000, min(p): 98000
max(T): 278.552, min(T): 278.552
ExecutionTime = 1536.8 s  ClockTime = 1539 s

Courant Number Mean/Max = 0.00501996, 0.00501996
deltaT = 1e-06
Time = 0.009996

Calculating Fluxes
Euler: step 1
Solving compressibleSystem:

Post-updating compressibleSystem:

max(p): 98000, min(p): 98000
max(T): 278.552, min(T): 278.552
ExecutionTime = 1536.96 s  ClockTime = 1539 s

Courant Number Mean/Max = 0.00501996, 0.00501996
deltaT = 1e-06
Time = 0.009997

Calculating Fluxes
Euler: step 1
Solving compressibleSystem:

Post-updating compressibleSystem:

max(p): 98000, min(p): 98000
max(T): 278.552, min(T): 278.552
ExecutionTime = 1537.11 s  ClockTime = 1539 s

Courant Number Mean/Max = 0.00501996, 0.00501996
deltaT = 1e-06
Time = 0.009998

Calculating Fluxes
Euler: step 1
Solving compressibleSystem:

Post-updating compressibleSystem:

max(p): 98000, min(p): 98000
max(T): 278.552, min(T): 278.552
ExecutionTime = 1537.25 s  ClockTime = 1540 s

Courant Number Mean/Max = 0.00501996, 0.00501996
deltaT = 1e-06
Time = 0.009999

Calculating Fluxes
Euler: step 1
Solving compressibleSystem:

Post-updating compressibleSystem:

max(p): 98000, min(p): 98000
max(T): 278.552, min(T): 278.552
ExecutionTime = 1537.4 s  ClockTime = 1540 s

Courant Number Mean/Max = 0.00501996, 0.00501996
deltaT = 1e-06
Time = 0.01

Calculating Fluxes
Euler: step 1
Solving compressibleSystem:

Post-updating compressibleSystem:

max(p): 98000, min(p): 98000
max(T): 278.552, min(T): 278.552
ExecutionTime = 1537.73 s  ClockTime = 1540 s

End

