/*---------------------------------------------------------------------------*\
  =========                 |
  \\      /  F ield         | OpenFOAM: The Open Source CFD Toolbox
   \\    /   O peration     | Website:  https://openfoam.org
    \\  /    A nd           | Version:  9
     \\/     M anipulation  |
\*---------------------------------------------------------------------------*/
Build  : 9
Exec   : snappyHexMesh -overwrite
Date   : Mar 11 2026
Time   : 21:23:21
Host   : "oseasy-desktopVDI"
PID    : 1583261
I/O    : uncollated
Case   : /media/dev/vdb1/xuzicheng/agent/building3D
nProcs : 1
sigFpe : Enabling floating point exception trapping (FOAM_SIGFPE).
fileModificationChecking : Monitoring run-time modified files using timeStampMaster (fileModificationSkew 10)
allowSystemOperations : Allowing user-supplied system call operations

// * * * * * * * * * * * * * * * * * * * * * * * * * * * * * * * * * * * * * //
Create time

--> FOAM Warning : 
    From function void* Foam::dlOpen(const Foam::fileName&, bool)
    in file POSIX.C at line 1247
    dlopen error : libblastFoam.so: cannot open shared object file: No such file or directory
--> FOAM Warning : 
    From function bool Foam::dlLibraryTable::open(const Foam::fileName&, bool)
    in file db/dynamicLibrary/dlLibraryTable/dlLibraryTable.C at line 106
    could not load "libblastFoam.so"
Create mesh for time = 0

Read mesh in = 0.21 s
Reading "snappyHexMeshDict"


Overall mesh bounding box  : (0 0 0) (10 10 5)
Relative tolerance         : 1e-06
Absolute matching distance : 1.5e-05



--> FOAM FATAL ERROR: 
Cannot find triSurfaceMesh starting from "/media/dev/vdb1/xuzicheng/agent/building3D/constant/geometry/L_Wall.stl"

    From function static Foam::fileName Foam::triSurfaceMesh::checkFile(const Foam::regIOobject&, const Foam::dictionary&, bool)
    in file searchableSurfaces/triSurfaceMesh/triSurfaceMesh.C at line 124.

FOAM exiting

