/*---------------------------------------------------------------------------*\
  =========                 |
  \\      /  F ield         | OpenFOAM: The Open Source CFD Toolbox
   \\    /   O peration     | Website:  https://openfoam.org
    \\  /    A nd           | Version:  9
     \\/     M anipulation  |
\*---------------------------------------------------------------------------*/
Build  : 9
Exec   : blockMesh
Date   : Mar 11 2026
Time   : 21:23:20
Host   : "oseasy-desktopVDI"
PID    : 1583255
I/O    : uncollated
Case   : /media/dev/vdb1/xuzicheng/agent/building3D
nProcs : 1
sigFpe : Enabling floating point exception trapping (FOAM_SIGFPE).
fileModificationChecking : Monitoring run-time modified files using timeStampMaster (fileModificationSkew 10)
allowSystemOperations : Allowing user-supplied system call operations

// * * * * * * * * * * * * * * * * * * * * * * * * * * * * * * * * * * * * * //
Create time

--> FOAM Warning : 
    From function void* Foam::dlOpen(const Foam::fileName&, bool)
    in file POSIX.C at line 1247
    dlopen error : libblastFoam.so: cannot open shared object file: No such file or directory
--> FOAM Warning : 
    From function bool Foam::dlLibraryTable::open(const Foam::fileName&, bool)
    in file db/dynamicLibrary/dlLibraryTable/dlLibraryTable.C at line 106
    could not load "libblastFoam.so"
Reading "blockMeshDict"

Creating block mesh from
    "system/blockMeshDict"
Creating block edges
No non-planar block faces defined
Creating topology blocks
Creating topology patches

Creating block mesh topology

Check topology

	Basic statistics
		Number of internal faces : 0
		Number of boundary faces : 6
		Number of defined boundary faces : 6
		Number of undefined boundary faces : 0
	Checking patch -> block consistency

Creating block offsets
Creating merge list .

Creating polyMesh from blockMesh
Creating patches
Creating cells
Creating points with scale 1
    Block 0 cell size :
        i : 0.2 .. 0.2
        j : 0.2 .. 0.2
        k : 0.2 .. 0.2

Writing polyMesh
----------------
Mesh Information
----------------
  boundingBox: (0 0 0) (10 10 5)
  nPoints: 67626
  nCells: 62500
  nFaces: 192500
  nInternalFaces: 182500
----------------
Patches
----------------
  patch 0 (start: 182500 size: 1250) name: inlet
  patch 1 (start: 183750 size: 1250) name: outlet
  patch 2 (start: 185000 size: 1250) name: front
  patch 3 (start: 186250 size: 1250) name: back
  patch 4 (start: 187500 size: 2500) name: bottom
  patch 5 (start: 190000 size: 2500) name: top

End

