/*---------------------------------------------------------------------------*\
  =========                 |
  \\      /  F ield         | OpenFOAM: The Open Source CFD Toolbox
   \\    /   O peration     | Website:  https://openfoam.org
    \\  /    A nd           | Version:  9
     \\/     M anipulation  |
\*---------------------------------------------------------------------------*/
Build  : 9
Exec   : blockMesh
Date   : Mar 13 2026
Time   : 16:52:43
Host   : "oseasy-desktopVDI"
PID    : 2368173
I/O    : uncollated
Case   : /media/dev/vdb1/xuzicheng/agent/building3D_blast
nProcs : 1
sigFpe : Enabling floating point exception trapping (FOAM_SIGFPE).
fileModificationChecking : Monitoring run-time modified files using timeStampMaster (fileModificationSkew 10)
allowSystemOperations : Allowing user-supplied system call operations

// * * * * * * * * * * * * * * * * * * * * * * * * * * * * * * * * * * * * * //
Create time

--> FOAM Warning : 
    From function void* Foam::dlOpen(const Foam::fileName&, bool)
    in file POSIX.C at line 1247
    dlopen error : libblastFoam.so: cannot open shared object file: No such file or directory
--> FOAM Warning : 
    From function bool Foam::dlLibraryTable::open(const Foam::fileName&, bool)
    in file db/dynamicLibrary/dlLibraryTable/dlLibraryTable.C at line 106
    could not load "libblastFoam.so"
Reading "blockMeshDict"

Creating block mesh from
    "system/blockMeshDict"
Creating block edges
No non-planar block faces defined
Creating topology blocks
Creating topology patches

Creating block mesh topology

Check topology

	Basic statistics
		Number of internal faces : 0
		Number of boundary faces : 6
		Number of defined boundary faces : 6
		Number of undefined boundary faces : 0
	Checking patch -> block consistency

Creating block offsets
Creating merge list .

Creating polyMesh from blockMesh
Creating patches
Creating cells
Creating points with scale 1
    Block 0 cell size :
        i : 0.5
        j : 0.5
        k : 0.5

Writing polyMesh
----------------
Mesh Information
----------------
  boundingBox: (0 0 0) (10 10 5)
  nPoints: 4851
  nCells: 4000
  nFaces: 12800
  nInternalFaces: 11200
----------------
Patches
----------------
  patch 0 (start: 11200 size: 200) name: inlet
  patch 1 (start: 11400 size: 200) name: outlet
  patch 2 (start: 11600 size: 200) name: front
  patch 3 (start: 11800 size: 200) name: back
  patch 4 (start: 12000 size: 400) name: bottom
  patch 5 (start: 12400 size: 400) name: top

End

