/*---------------------------------------------------------------------------*\
  =========                 |
  \\      /  F ield         | OpenFOAM: The Open Source CFD Toolbox
   \\    /   O peration     | Website:  https://openfoam.org
    \\  /    A nd           | Version:  9
     \\/     M anipulation  |
\*---------------------------------------------------------------------------*/
Build  : 9
Exec   : blastFoam
Date   : Mar 13 2026
Time   : 16:52:44
Host   : "oseasy-desktopVDI"
PID    : 2368243
I/O    : uncollated
Case   : /media/dev/vdb1/xuzicheng/agent/building3D_blast
nProcs : 1
sigFpe : Enabling floating point exception trapping (FOAM_SIGFPE).
fileModificationChecking : Monitoring run-time modified files using timeStampMaster (fileModificationSkew 10)
allowSystemOperations : Allowing user-supplied system call operations

// * * * * * * * * * * * * * * * * * * * * * * * * * * * * * * * * * * * * * //
Create time

--> FOAM Warning : 
    From function void* Foam::dlOpen(const Foam::fileName&, bool)
    in file POSIX.C at line 1247
    dlopen error : libblastFoam.so: cannot open shared object file: No such file or directory
--> FOAM Warning : 
    From function bool Foam::dlLibraryTable::open(const Foam::fileName&, bool)
    in file db/dynamicLibrary/dlLibraryTable/dlLibraryTable.C at line 106
    could not load "libblastFoam.so"
Create mesh for time = 0


Reading g
Selecting timeIntegrator: Euler
Reading phaseProperties dictionary

Selecting thermodynamics package phaseFluid<detonating<const<eConst<Murnaghan<specie>>>,const<ePolynomial<JWL<specie>>>>>
Selecting activationModel: none
Selecting afterburnModel: none
Selecting thermodynamics package phaseFluid<basic<const<eConst<idealGas<specie>>>>>
Selecting univariate root solver: NewtonRaphson
Selecting univariate root solver: NewtonRaphson
Selecting fluxScheme: Kurganov

Starting time loop

Courant Number Mean/Max = 0.000335876, 0.00562753
deltaT = 1.1999e-07
Time = 1.1999e-07

Calculating Fluxes
Euler: step 1
Solving compressibleSystem:

Post-updating compressibleSystem:

max(p): 1.2623e+10, min(p): 122500
max(T): 2338.32, min(T): 348.189
ExecutionTime = 0.13 s  ClockTime = 1 s

Courant Number Mean/Max = 0.000640804, 0.0168925
deltaT = 1.43975e-07
Time = 2.63965e-07

Calculating Fluxes
Euler: step 1
Solving compressibleSystem:

Post-updating compressibleSystem:

max(p): 1.26231e+10, min(p): 122500
max(T): 2338.73, min(T): 348.189
ExecutionTime = 0.16 s  ClockTime = 1 s

Courant Number Mean/Max = 0.000819805, 0.0219564
deltaT = 1.7274e-07
Time = 4.36705e-07

Calculating Fluxes
Euler: step 1
Solving compressibleSystem:

Post-updating compressibleSystem:

max(p): 1.26232e+10, min(p): 122500
max(T): 2340.39, min(T): 348.189
ExecutionTime = 0.2 s  ClockTime = 1 s

Courant Number Mean/Max = 0.00100683, 0.0272028
deltaT = 2.07288e-07
Time = 6.43992e-07

Calculating Fluxes
Euler: step 1
Solving compressibleSystem:

Post-updating compressibleSystem:

max(p): 1.26236e+10, min(p): 122498
max(T): 2342.65, min(T): 348.184
ExecutionTime = 0.23 s  ClockTime = 1 s

Courant Number Mean/Max = 0.00122504, 0.0331977
deltaT = 2.48683e-07
Time = 8.92676e-07

Calculating Fluxes
Euler: step 1
Solving compressibleSystem:

Post-updating compressibleSystem:

max(p): 1.26242e+10, min(p): 122492
max(T): 2345.44, min(T): 348.168
ExecutionTime = 0.27 s  ClockTime = 1 s

Courant Number Mean/Max = 0.00148389, 0.040133
deltaT = 2.98331e-07
Time = 1.19101e-06

Calculating Fluxes
Euler: step 1
Solving compressibleSystem:

Post-updating compressibleSystem:

max(p): 1.26253e+10, min(p): 122481
max(T): 2348.75, min(T): 348.134
ExecutionTime = 0.3 s  ClockTime = 1 s

Courant Number Mean/Max = 0.00179467, 0.0483075
deltaT = 3.57826e-07
Time = 1.54883e-06

Calculating Fluxes
Euler: step 1
Solving compressibleSystem:

Post-updating compressibleSystem:

max(p): 1.26268e+10, min(p): 122467
max(T): 2352.61, min(T): 348.094
ExecutionTime = 0.33 s  ClockTime = 1 s

Courant Number Mean/Max = 0.00216918, 0.0579929
deltaT = 4.29329e-07
Time = 1.97816e-06

Calculating Fluxes
Euler: step 1
Solving compressibleSystem:

Post-updating compressibleSystem:

max(p): 1.26288e+10, min(p): 122461
max(T): 2357.02, min(T): 348.077
ExecutionTime = 0.36 s  ClockTime = 1 s

Courant Number Mean/Max = 0.00262357, 0.0695263
deltaT = 5.15017e-07
Time = 2.49318e-06

Calculating Fluxes
Euler: step 1
Solving compressibleSystem:

Post-updating compressibleSystem:

max(p): 1.26312e+10, min(p): 122464
max(T): 2361.98, min(T): 348.082
ExecutionTime = 0.39 s  ClockTime = 1 s

Courant Number Mean/Max = 0.00317442, 0.0832301
deltaT = 6.18021e-07
Time = 3.1112e-06

Calculating Fluxes
Euler: step 1
Solving compressibleSystem:

Post-updating compressibleSystem:

max(p): 1.26342e+10, min(p): 122466
max(T): 2367.41, min(T): 348.088
ExecutionTime = 0.42 s  ClockTime = 1 s

Courant Number Mean/Max = 0.00385231, 0.0995625
deltaT = 7.41625e-07
Time = 3.85282e-06

Calculating Fluxes
Euler: step 1
Solving compressibleSystem:

Post-updating compressibleSystem:

max(p): 1.26376e+10, min(p): 122445
max(T): 2373.15, min(T): 348.022
ExecutionTime = 0.45 s  ClockTime = 1 s

Courant Number Mean/Max = 0.00467694, 0.118986
deltaT = 8.89153e-07
Time = 4.74198e-06

Calculating Fluxes
Euler: step 1
Solving compressibleSystem:

Post-updating compressibleSystem:

max(p): 1.26413e+10, min(p): 122424
max(T): 2378.88, min(T): 347.945
ExecutionTime = 0.48 s  ClockTime = 1 s

Courant Number Mean/Max = 0.00568196, 0.14547
deltaT = 1.06507e-06
Time = 5.80705e-06

Calculating Fluxes
Euler: step 1
Solving compressibleSystem:

Post-updating compressibleSystem:

max(p): 1.26446e+10, min(p): 122476
max(T): 2384.15, min(T): 348.029
ExecutionTime = 0.5 s  ClockTime = 1 s

Courant Number Mean/Max = 0.00690792, 0.176059
deltaT = 1.27698e-06
Time = 7.08403e-06

Calculating Fluxes
Euler: step 1
Solving compressibleSystem:

Post-updating compressibleSystem:

max(p): 1.26464e+10, min(p): 122500
max(T): 2388.04, min(T): 348.189
ExecutionTime = 0.53 s  ClockTime = 1 s

Courant Number Mean/Max = 0.00841936, 0.211641
deltaT = 1.53079e-06
Time = 8.61483e-06

Calculating Fluxes
Euler: step 1
Solving compressibleSystem:

Post-updating compressibleSystem:

max(p): 1.26439e+10, min(p): 122500
max(T): 2388.77, min(T): 348.189
ExecutionTime = 0.56 s  ClockTime = 1 s

Courant Number Mean/Max = 0.0102758, 0.252361
deltaT = 1.83353e-06
Time = 1.04484e-05

Calculating Fluxes
Euler: step 1
Solving compressibleSystem:

Post-updating compressibleSystem:

max(p): 1.26405e+10, min(p): 122500
max(T): 2385.36, min(T): 348.189
ExecutionTime = 0.59 s  ClockTime = 1 s

Courant Number Mean/Max = 0.0125484, 0.298138
deltaT = 2.13778e-06
Time = 1.25861e-05

Calculating Fluxes
Euler: step 1
Solving compressibleSystem:

Post-updating compressibleSystem:

max(p): 1.2643e+10, min(p): 122500
max(T): 2378.15, min(T): 348.189
ExecutionTime = 0.63 s  ClockTime = 1 s

Courant Number Mean/Max = 0.0149392, 0.340098
deltaT = 2.44932e-06
Time = 1.50355e-05

Calculating Fluxes
Euler: step 1
Solving compressibleSystem:

Post-updating compressibleSystem:

max(p): 1.26434e+10, min(p): 122500
max(T): 2368.01, min(T): 348.189
ExecutionTime = 0.66 s  ClockTime = 1 s

Courant Number Mean/Max = 0.0174799, 0.378149
deltaT = 2.77123e-06
Time = 1.78067e-05

Calculating Fluxes
Euler: step 1
Solving compressibleSystem:

Post-updating compressibleSystem:

max(p): 1.26415e+10, min(p): 122500
max(T): 2876.12, min(T): 348.189
ExecutionTime = 0.69 s  ClockTime = 1 s

Courant Number Mean/Max = 0.0201948, 0.420105
deltaT = 3.09098e-06
Time = 2.08977e-05

Calculating Fluxes
Euler: step 1
Solving compressibleSystem:

Post-updating compressibleSystem:

max(p): 1.26366e+10, min(p): 122500
max(T): 4143.5, min(T): 348.189
ExecutionTime = 0.72 s  ClockTime = 1 s

Courant Number Mean/Max = 0.0229917, 0.464843
deltaT = 3.30415e-06
Time = 2.42018e-05

Calculating Fluxes
Euler: step 1
Solving compressibleSystem:

Post-updating compressibleSystem:

max(p): 1.26409e+10, min(p): 122500
max(T): 5476.14, min(T): 348.189
ExecutionTime = 0.75 s  ClockTime = 1 s

Courant Number Mean/Max = 0.0250523, 0.530987
deltaT = 3.10979e-06
Time = 2.73116e-05

Calculating Fluxes
Euler: step 1
Solving compressibleSystem:

Post-updating compressibleSystem:

max(p): 1.26453e+10, min(p): 122500
max(T): 5754.61, min(T): 348.189
ExecutionTime = 0.79 s  ClockTime = 1 s

Courant Number Mean/Max = 0.0239927, 0.51807
deltaT = 2.9917e-06
Time = 3.03033e-05

Calculating Fluxes
Euler: step 1
Solving compressibleSystem:

Post-updating compressibleSystem:

max(p): 1.26493e+10, min(p): 122500
max(T): 5617.07, min(T): 348.189
ExecutionTime = 0.82 s  ClockTime = 1 s

Courant Number Mean/Max = 0.0234395, 0.509147
deltaT = 2.9356e-06
Time = 3.32389e-05

Calculating Fluxes
Euler: step 1
Solving compressibleSystem:

Post-updating compressibleSystem:

max(p): 1.26541e+10, min(p): 122500
max(T): 6881.86, min(T): 348.189
ExecutionTime = 0.85 s  ClockTime = 1 s

Courant Number Mean/Max = 0.0233016, 0.50138
deltaT = 2.91726e-06
Time = 3.61562e-05

Calculating Fluxes
Euler: step 1
Solving compressibleSystem:

Post-updating compressibleSystem:

max(p): 1.26603e+10, min(p): 0
max(T): 6991.6, min(T): 0
ExecutionTime = 0.88 s  ClockTime = 1 s

Courant Number Mean/Max = 0.0234082, 0.493293
deltaT = 2.95442e-06
Time = 3.91106e-05

Calculating Fluxes
Euler: step 1
Solving compressibleSystem:

Post-updating compressibleSystem:

max(p): 1.2666e+10, min(p): 122498
max(T): 5014.04, min(T): 348.184
ExecutionTime = 0.92 s  ClockTime = 1 s

Courant Number Mean/Max = 0.0239633, 0.489872
deltaT = 3.01235e-06
Time = 4.21229e-05

Calculating Fluxes
Euler: step 1
Solving compressibleSystem:

Post-updating compressibleSystem:

max(p): 1.26706e+10, min(p): 122493
max(T): 5903.85, min(T): 348.172
ExecutionTime = 0.95 s  ClockTime = 1 s

Courant Number Mean/Max = 0.0246514, 0.486273
deltaT = 3.09376e-06
Time = 4.52167e-05

Calculating Fluxes
Euler: step 1
Solving compressibleSystem:

Post-updating compressibleSystem:

max(p): 1.2673e+10, min(p): 122480
max(T): 4771.53, min(T): 348.136
ExecutionTime = 0.98 s  ClockTime = 1 s

Courant Number Mean/Max = 0.0255228, 0.483574
deltaT = 3.1803e-06
Time = 4.8397e-05

Calculating Fluxes
Euler: step 1
Solving compressibleSystem:

Post-updating compressibleSystem:

max(p): 1.26758e+10, min(p): 122477
max(T): 4993.94, min(T): 348.117
ExecutionTime = 1.03 s  ClockTime = 1 s

Courant Number Mean/Max = 0.026428, 0.486168
deltaT = 3.24894e-06
Time = 5.16459e-05

Calculating Fluxes
Euler: step 1
Solving compressibleSystem:

Post-updating compressibleSystem:

max(p): 1.26793e+10, min(p): 122480
max(T): 5198.82, min(T): 348.135
ExecutionTime = 1.06 s  ClockTime = 1 s

Courant Number Mean/Max = 0.0271668, 0.502645
deltaT = 3.22557e-06
Time = 5.48715e-05

Calculating Fluxes
Euler: step 1
Solving compressibleSystem:

Post-updating compressibleSystem:

max(p): 1.26832e+10, min(p): 122496
max(T): 5040.71, min(T): 348.164
ExecutionTime = 1.09 s  ClockTime = 2 s

Courant Number Mean/Max = 0.0271145, 0.499512
deltaT = 3.22557e-06
Time = 5.80971e-05

Calculating Fluxes
Euler: step 1
Solving compressibleSystem:

Post-updating compressibleSystem:

max(p): 1.26873e+10, min(p): 122500
max(T): 5374.63, min(T): 348.189
ExecutionTime = 1.12 s  ClockTime = 2 s

Courant Number Mean/Max = 0.0272328, 0.495793
deltaT = 3.24929e-06
Time = 6.13464e-05

Calculating Fluxes
Euler: step 1
Solving compressibleSystem:

Post-updating compressibleSystem:

max(p): 1.26912e+10, min(p): 122500
max(T): 5973.91, min(T): 348.188
ExecutionTime = 1.17 s  ClockTime = 2 s

Courant Number Mean/Max = 0.0275344, 0.492605
deltaT = 3.29815e-06
Time = 6.46445e-05

Calculating Fluxes
Euler: step 1
Solving compressibleSystem:

Post-updating compressibleSystem:

max(p): 1.2695e+10, min(p): 122498
max(T): 6045.25, min(T): 348.184
ExecutionTime = 1.2 s  ClockTime = 2 s

Courant Number Mean/Max = 0.0280379, 0.491251
deltaT = 3.34889e-06
Time = 6.79934e-05

Calculating Fluxes
Euler: step 1
Solving compressibleSystem:

Post-updating compressibleSystem:

max(p): 1.26983e+10, min(p): 122494
max(T): 5652.18, min(T): 348.172
ExecutionTime = 1.23 s  ClockTime = 2 s

Courant Number Mean/Max = 0.0285487, 0.488986
deltaT = 3.40163e-06
Time = 7.1395e-05

Calculating Fluxes
Euler: step 1
Solving compressibleSystem:

Post-updating compressibleSystem:

max(p): 1.27015e+10, min(p): 122481
max(T): 5191.17, min(T): 348.134
ExecutionTime = 1.27 s  ClockTime = 2 s

Courant Number Mean/Max = 0.0290702, 0.486228
deltaT = 3.48459e-06
Time = 7.48796e-05

Calculating Fluxes
Euler: step 1
Solving compressibleSystem:

Post-updating compressibleSystem:

max(p): 1.27048e+10, min(p): 122448
max(T): 5882.26, min(T): 348.038
ExecutionTime = 1.3 s  ClockTime = 2 s

Courant Number Mean/Max = 0.0298442, 0.495997
deltaT = 3.48459e-06
Time = 7.83642e-05

Calculating Fluxes
Euler: step 1
Solving compressibleSystem:

Post-updating compressibleSystem:

max(p): 1.27093e+10, min(p): 122383
max(T): 6422.75, min(T): 347.844
ExecutionTime = 1.34 s  ClockTime = 2 s

Courant Number Mean/Max = 0.0298978, 0.494178
deltaT = 3.51363e-06
Time = 8.18778e-05

Calculating Fluxes
Euler: step 1
Solving compressibleSystem:

Post-updating compressibleSystem:

max(p): 1.27132e+10, min(p): 122291
max(T): 6630.45, min(T): 347.567
ExecutionTime = 1.37 s  ClockTime = 2 s

Courant Number Mean/Max = 0.0301916, 0.496277
deltaT = 3.51363e-06
Time = 8.53915e-05

Calculating Fluxes
Euler: step 1
Solving compressibleSystem:

Post-updating compressibleSystem:

max(p): 1.27148e+10, min(p): 122221
max(T): 7669.57, min(T): 347.347
ExecutionTime = 1.4 s  ClockTime = 2 s

Courant Number Mean/Max = 0.0302246, 0.494138
deltaT = 3.54366e-06
Time = 8.89351e-05

Calculating Fluxes
Euler: step 1
Solving compressibleSystem:

Post-updating compressibleSystem:

max(p): 1.27133e+10, min(p): 122220
max(T): 8395.66, min(T): 347.336
ExecutionTime = 1.44 s  ClockTime = 2 s

Courant Number Mean/Max = 0.0305097, 0.496101
deltaT = 3.54366e-06
Time = 9.24788e-05

Calculating Fluxes
Euler: step 1
Solving compressibleSystem:

Post-updating compressibleSystem:

max(p): 1.27202e+10, min(p): 122286
max(T): 8188.09, min(T): 347.537
ExecutionTime = 1.48 s  ClockTime = 2 s

Courant Number Mean/Max = 0.0305325, 0.493802
deltaT = 3.57475e-06
Time = 9.60536e-05

Calculating Fluxes
Euler: step 1
Solving compressibleSystem:

Post-updating compressibleSystem:

max(p): 1.27256e+10, min(p): 122217
max(T): 7407.65, min(T): 347.335
ExecutionTime = 1.51 s  ClockTime = 2 s

Courant Number Mean/Max = 0.030817, 0.495791
deltaT = 3.57475e-06
Time = 9.96283e-05

Calculating Fluxes
Euler: step 1
Solving compressibleSystem:

Post-updating compressibleSystem:

max(p): 1.27278e+10, min(p): 122221
max(T): 6879.41, min(T): 347.326
ExecutionTime = 1.54 s  ClockTime = 2 s

Courant Number Mean/Max = 0.0308276, 0.493644
deltaT = 3.60695e-06
Time = 0.000103235

Calculating Fluxes
Euler: step 1
Solving compressibleSystem:

Post-updating compressibleSystem:

max(p): 1.27274e+10, min(p): 122385
max(T): 6719.95, min(T): 347.764
ExecutionTime = 1.58 s  ClockTime = 2 s

Courant Number Mean/Max = 0.0311126, 0.496415
deltaT = 3.60695e-06
Time = 0.000106842

Calculating Fluxes
Euler: step 1
Solving compressibleSystem:

Post-updating compressibleSystem:

max(p): 1.27204e+10, min(p): 122489
max(T): 7192.51, min(T): 348.162
ExecutionTime = 1.61 s  ClockTime = 2 s

Courant Number Mean/Max = 0.0311104, 0.494638
deltaT = 3.64035e-06
Time = 0.000110483

Calculating Fluxes
Euler: step 1
Solving compressibleSystem:

Post-updating compressibleSystem:

max(p): 1.27191e+10, min(p): 122476
max(T): 7553.98, min(T): 348.126
ExecutionTime = 1.64 s  ClockTime = 2 s

Courant Number Mean/Max = 0.0313899, 0.497318
deltaT = 3.64035e-06
Time = 0.000114123

Calculating Fluxes
Euler: step 1
Solving compressibleSystem:

Post-updating compressibleSystem:

max(p): 1.2713e+10, min(p): 122450
max(T): 8158.14, min(T): 348.056
ExecutionTime = 1.68 s  ClockTime = 2 s

Courant Number Mean/Max = 0.0313763, 0.49534
deltaT = 3.64035e-06
Time = 0.000117763

Calculating Fluxes
Euler: step 1
Solving compressibleSystem:

Post-updating compressibleSystem:

max(p): 1.27065e+10, min(p): 122404
max(T): 8320.65, min(T): 347.932
ExecutionTime = 1.71 s  ClockTime = 2 s

Courant Number Mean/Max = 0.0313592, 0.493289
deltaT = 3.67535e-06
Time = 0.000121439

Calculating Fluxes
Euler: step 1
Solving compressibleSystem:

Post-updating compressibleSystem:

max(p): 1.26997e+10, min(p): 122330
max(T): 8046.72, min(T): 347.727
ExecutionTime = 1.74 s  ClockTime = 2 s

Courant Number Mean/Max = 0.0316411, 0.495862
deltaT = 3.67535e-06
Time = 0.000125114

Calculating Fluxes
Euler: step 1
Solving compressibleSystem:

Post-updating compressibleSystem:

max(p): 1.26864e+10, min(p): 122219
max(T): 7414.59, min(T): 347.415
ExecutionTime = 1.78 s  ClockTime = 2 s

Courant Number Mean/Max = 0.031621, 0.493601
deltaT = 3.71174e-06
Time = 0.000128826

Calculating Fluxes
Euler: step 1
Solving compressibleSystem:

Post-updating compressibleSystem:

max(p): 1.26645e+10, min(p): 122072
max(T): 6823.99, min(T): 347
ExecutionTime = 1.82 s  ClockTime = 2 s

Courant Number Mean/Max = 0.0319114, 0.496083
deltaT = 3.71174e-06
Time = 0.000132537

Calculating Fluxes
Euler: step 1
Solving compressibleSystem:

Post-updating compressibleSystem:

max(p): 1.26373e+10, min(p): 121903
max(T): 6738.29, min(T): 346.523
ExecutionTime = 1.86 s  ClockTime = 2 s

Courant Number Mean/Max = 0.031887, 0.493569
deltaT = 3.74962e-06
Time = 0.000136287

Calculating Fluxes
Euler: step 1
Solving compressibleSystem:

Post-updating compressibleSystem:

max(p): 1.25996e+10, min(p): 121735
max(T): 7392.46, min(T): 346.049
ExecutionTime = 1.89 s  ClockTime = 2 s

Courant Number Mean/Max = 0.0321867, 0.495925
deltaT = 3.74962e-06
Time = 0.000140037

Calculating Fluxes
Euler: step 1
Solving compressibleSystem:

Post-updating compressibleSystem:

max(p): 1.255e+10, min(p): 121609
max(T): 8438.86, min(T): 345.699
ExecutionTime = 1.92 s  ClockTime = 2 s

Courant Number Mean/Max = 0.0321616, 0.493122
deltaT = 3.78909e-06
Time = 0.000143826

Calculating Fluxes
Euler: step 1
Solving compressibleSystem:

Post-updating compressibleSystem:

max(p): 1.24868e+10, min(p): 121519
max(T): 9288.42, min(T): 345.452
ExecutionTime = 1.96 s  ClockTime = 2 s

Courant Number Mean/Max = 0.0324762, 0.495325
deltaT = 3.78909e-06
Time = 0.000147615

Calculating Fluxes
Euler: step 1
Solving compressibleSystem:

Post-updating compressibleSystem:

max(p): 1.24099e+10, min(p): 121539
max(T): 9735.29, min(T): 345.523
ExecutionTime = 1.99 s  ClockTime = 2 s

Courant Number Mean/Max = 0.0324554, 0.492213
deltaT = 3.83027e-06
Time = 0.000151445

Calculating Fluxes
Euler: step 1
Solving compressibleSystem:

Post-updating compressibleSystem:

max(p): 1.23176e+10, min(p): 121703
max(T): 9344.54, min(T): 345.943
ExecutionTime = 2.02 s  ClockTime = 2 s

Courant Number Mean/Max = 0.0327907, 0.494278
deltaT = 3.87283e-06
Time = 0.000155318

Calculating Fluxes
Euler: step 1
Solving compressibleSystem:

Post-updating compressibleSystem:

max(p): 1.22097e+10, min(p): 121555
max(T): 10615.7, min(T): 345.587
ExecutionTime = 2.06 s  ClockTime = 2 s

Courant Number Mean/Max = 0.0331417, 0.496307
deltaT = 3.87283e-06
Time = 0.000159191

Calculating Fluxes
Euler: step 1
Solving compressibleSystem:

Post-updating compressibleSystem:

max(p): 1.20877e+10, min(p): 121417
max(T): 10025.5, min(T): 345.205
ExecutionTime = 2.09 s  ClockTime = 3 s

Courant Number Mean/Max = 0.0331287, 0.492739
deltaT = 3.91735e-06
Time = 0.000163108

Calculating Fluxes
Euler: step 1
Solving compressibleSystem:

Post-updating compressibleSystem:

max(p): 1.19509e+10, min(p): 121373
max(T): 8598.36, min(T): 345.099
ExecutionTime = 2.13 s  ClockTime = 3 s

Courant Number Mean/Max = 0.0335011, 0.494721
deltaT = 3.91735e-06
Time = 0.000167025

Calculating Fluxes
Euler: step 1
Solving compressibleSystem:

Post-updating compressibleSystem:

max(p): 1.18017e+10, min(p): 121504
max(T): 7784.23, min(T): 345.492
ExecutionTime = 2.16 s  ClockTime = 3 s

Courant Number Mean/Max = 0.033494, 0.49127
deltaT = 3.96398e-06
Time = 0.000170989

Calculating Fluxes
Euler: step 1
Solving compressibleSystem:

Post-updating compressibleSystem:

max(p): 1.16393e+10, min(p): 122088
max(T): 8190.52, min(T): 347.157
ExecutionTime = 2.19 s  ClockTime = 3 s

Courant Number Mean/Max = 0.0338916, 0.493449
deltaT = 4.01232e-06
Time = 0.000175002

Calculating Fluxes
Euler: step 1
Solving compressibleSystem:

Post-updating compressibleSystem:

max(p): 1.14644e+10, min(p): 122275
max(T): 8844.59, min(T): 347.503
ExecutionTime = 2.23 s  ClockTime = 3 s

Courant Number Mean/Max = 0.034299, 0.495576
deltaT = 4.01232e-06
Time = 0.000179014

Calculating Fluxes
Euler: step 1
Solving compressibleSystem:

Post-updating compressibleSystem:

max(p): 1.12799e+10, min(p): 122173
max(T): 9094.38, min(T): 347.291
ExecutionTime = 2.27 s  ClockTime = 3 s

Courant Number Mean/Max = 0.0343, 0.491562
deltaT = 4.06311e-06
Time = 0.000183077

Calculating Fluxes
Euler: step 1
Solving compressibleSystem:

Post-updating compressibleSystem:

max(p): 1.10844e+10, min(p): 122067
max(T): 8910.32, min(T): 346.991
ExecutionTime = 2.32 s  ClockTime = 3 s

Courant Number Mean/Max = 0.0347352, 0.493548
deltaT = 4.11588e-06
Time = 0.000187193

Calculating Fluxes
Euler: step 1
Solving compressibleSystem:

Post-updating compressibleSystem:

max(p): 1.08784e+10, min(p): 122001
max(T): 8476.65, min(T): 346.802
ExecutionTime = 2.36 s  ClockTime = 3 s

Courant Number Mean/Max = 0.0351896, 0.495496
deltaT = 4.11588e-06
Time = 0.000191309

Calculating Fluxes
Euler: step 1
Solving compressibleSystem:

Post-updating compressibleSystem:

max(p): 1.06653e+10, min(p): 121964
max(T): 8086.19, min(T): 346.711
ExecutionTime = 2.39 s  ClockTime = 3 s

Courant Number Mean/Max = 0.0351929, 0.490937
deltaT = 4.1715e-06
Time = 0.00019548

Calculating Fluxes
Euler: step 1
Solving compressibleSystem:

Post-updating compressibleSystem:

max(p): 1.04429e+10, min(p): 121929
max(T): 7780.15, min(T): 346.616
ExecutionTime = 2.42 s  ClockTime = 3 s

Courant Number Mean/Max = 0.0356722, 0.492809
deltaT = 4.22944e-06
Time = 0.00019971

Calculating Fluxes
Euler: step 1
Solving compressibleSystem:

Post-updating compressibleSystem:

max(p): 1.02114e+10, min(p): 121960
max(T): 7998.04, min(T): 346.69
ExecutionTime = 2.46 s  ClockTime = 3 s

Courant Number Mean/Max = 0.0361692, 0.495281
deltaT = 4.22944e-06
Time = 0.000203939

Calculating Fluxes
Euler: step 1
Solving compressibleSystem:

Post-updating compressibleSystem:

max(p): 9.97464e+09, min(p): 121973
max(T): 8810.3, min(T): 346.723
ExecutionTime = 2.49 s  ClockTime = 3 s

Courant Number Mean/Max = 0.0361731, 0.492535
deltaT = 4.29073e-06
Time = 0.00020823

Calculating Fluxes
Euler: step 1
Solving compressibleSystem:

Post-updating compressibleSystem:

max(p): 9.72982e+09, min(p): 122001
max(T): 9431.62, min(T): 346.783
ExecutionTime = 2.53 s  ClockTime = 3 s

Courant Number Mean/Max = 0.0367019, 0.496679
deltaT = 4.29073e-06
Time = 0.000212521

Calculating Fluxes
Euler: step 1
Solving compressibleSystem:

Post-updating compressibleSystem:

max(p): 9.48526e+09, min(p): 121916
max(T): 9757.97, min(T): 346.614
ExecutionTime = 2.56 s  ClockTime = 3 s

Courant Number Mean/Max = 0.0367095, 0.49351
deltaT = 4.29073e-06
Time = 0.000216812

Calculating Fluxes
Euler: step 1
Solving compressibleSystem:

Post-updating compressibleSystem:

max(p): 9.2414e+09, min(p): 121831
max(T): 9298.71, min(T): 346.387
ExecutionTime = 2.6 s  ClockTime = 3 s

Courant Number Mean/Max = 0.0367207, 0.490164
deltaT = 4.35675e-06
Time = 0.000221168

Calculating Fluxes
Euler: step 1
Solving compressibleSystem:

Post-updating compressibleSystem:

max(p): 8.99147e+09, min(p): 121782
max(T): 9993.76, min(T): 346.247
ExecutionTime = 2.64 s  ClockTime = 3 s

Courant Number Mean/Max = 0.0372992, 0.494075
deltaT = 4.35675e-06
Time = 0.000225525

Calculating Fluxes
Euler: step 1
Solving compressibleSystem:

Post-updating compressibleSystem:

max(p): 8.73955e+09, min(p): 121843
max(T): 9093.9, min(T): 346.404
ExecutionTime = 2.67 s  ClockTime = 3 s

Courant Number Mean/Max = 0.0373177, 0.49026
deltaT = 4.42702e-06
Time = 0.000229952

Calculating Fluxes
Euler: step 1
Solving compressibleSystem:

Post-updating compressibleSystem:

max(p): 8.4822e+09, min(p): 122036
max(T): 9707.62, min(T): 346.839
ExecutionTime = 2.7 s  ClockTime = 3 s

Courant Number Mean/Max = 0.037939, 0.494736
deltaT = 4.42702e-06
Time = 0.000234379

Calculating Fluxes
Euler: step 1
Solving compressibleSystem:

Post-updating compressibleSystem:

max(p): 8.22424e+09, min(p): 121856
max(T): 9761.88, min(T): 346.368
ExecutionTime = 2.73 s  ClockTime = 3 s

Courant Number Mean/Max = 0.0379616, 0.491807
deltaT = 4.42702e-06
Time = 0.000238806

Calculating Fluxes
Euler: step 1
Solving compressibleSystem:

Post-updating compressibleSystem:

max(p): 7.96661e+09, min(p): 121642
max(T): 8587.43, min(T): 345.806
ExecutionTime = 2.77 s  ClockTime = 3 s

Courant Number Mean/Max = 0.0379876, 0.487091
deltaT = 4.50334e-06
Time = 0.000243309

Calculating Fluxes
Euler: step 1
Solving compressibleSystem:

Post-updating compressibleSystem:

max(p): 7.706e+09, min(p): 121410
max(T): 8936.31, min(T): 345.201
ExecutionTime = 2.81 s  ClockTime = 3 s

Courant Number Mean/Max = 0.0386738, 0.490612
deltaT = 4.58376e-06
Time = 0.000247893

Calculating Fluxes
Euler: step 1
Solving compressibleSystem:

Post-updating compressibleSystem:

max(p): 7.44343e+09, min(p): 121211
max(T): 8928.61, min(T): 344.69
ExecutionTime = 2.84 s  ClockTime = 3 s

Courant Number Mean/Max = 0.0394017, 0.493438
deltaT = 4.58376e-06
Time = 0.000252477

Calculating Fluxes
Euler: step 1
Solving compressibleSystem:

Post-updating compressibleSystem:

max(p): 7.18499e+09, min(p): 121065
max(T): 8754.6, min(T): 344.316
ExecutionTime = 2.87 s  ClockTime = 3 s

Courant Number Mean/Max = 0.0394442, 0.491956
deltaT = 4.58376e-06
Time = 0.000257061

Calculating Fluxes
Euler: step 1
Solving compressibleSystem:

Post-updating compressibleSystem:

max(p): 6.93271e+09, min(p): 120921
max(T): 8693.07, min(T): 343.962
ExecutionTime = 2.9 s  ClockTime = 3 s

Courant Number Mean/Max = 0.0394923, 0.496667
deltaT = 4.58376e-06
Time = 0.000261644

Calculating Fluxes
Euler: step 1
Solving compressibleSystem:

Post-updating compressibleSystem:

max(p): 6.69538e+09, min(p): 120930
max(T): 8668.73, min(T): 343.932
ExecutionTime = 2.95 s  ClockTime = 3 s

Courant Number Mean/Max = 0.039543, 0.498404
deltaT = 4.58376e-06
Time = 0.000266228

Calculating Fluxes
Euler: step 1
Solving compressibleSystem:

Post-updating compressibleSystem:

max(p): 6.46578e+09, min(p): 120812
max(T): 8300.44, min(T): 343.638
ExecutionTime = 2.98 s  ClockTime = 3 s

Courant Number Mean/Max = 0.0395955, 0.497442
deltaT = 4.58376e-06
Time = 0.000270812

Calculating Fluxes
Euler: step 1
Solving compressibleSystem:

Post-updating compressibleSystem:

max(p): 6.24407e+09, min(p): 120841
max(T): 8572.34, min(T): 343.771
ExecutionTime = 3.02 s  ClockTime = 3 s

Courant Number Mean/Max = 0.0396497, 0.494751
deltaT = 4.58376e-06
Time = 0.000275396

Calculating Fluxes
Euler: step 1
Solving compressibleSystem:

Post-updating compressibleSystem:

max(p): 6.03032e+09, min(p): 121039
max(T): 9088.76, min(T): 344.278
ExecutionTime = 3.05 s  ClockTime = 3 s

Courant Number Mean/Max = 0.0397054, 0.491959
deltaT = 4.58376e-06
Time = 0.00027998

Calculating Fluxes
Euler: step 1
Solving compressibleSystem:

Post-updating compressibleSystem:

max(p): 5.82456e+09, min(p): 120959
max(T): 9476.78, min(T): 344.083
ExecutionTime = 3.09 s  ClockTime = 4 s

Courant Number Mean/Max = 0.0397629, 0.487575
deltaT = 4.68129e-06
Time = 0.000284661

Calculating Fluxes
Euler: step 1
Solving compressibleSystem:

Post-updating compressibleSystem:

max(p): 5.6226e+09, min(p): 120782
max(T): 9400.11, min(T): 343.613
ExecutionTime = 3.12 s  ClockTime = 4 s

Courant Number Mean/Max = 0.0406704, 0.493187
deltaT = 4.68129e-06
Time = 0.000289342

Calculating Fluxes
Euler: step 1
Solving compressibleSystem:

Post-updating compressibleSystem:

max(p): 5.42884e+09, min(p): 120641
max(T): 9541.67, min(T): 343.269
ExecutionTime = 3.15 s  ClockTime = 4 s

Courant Number Mean/Max = 0.0407341, 0.495988
deltaT = 4.68129e-06
Time = 0.000294023

Calculating Fluxes
Euler: step 1
Solving compressibleSystem:

Post-updating compressibleSystem:

max(p): 5.24321e+09, min(p): 120476
max(T): 9544.14, min(T): 342.862
ExecutionTime = 3.19 s  ClockTime = 4 s

Courant Number Mean/Max = 0.0407943, 0.49878
deltaT = 4.68129e-06
Time = 0.000298705

Calculating Fluxes
Euler: step 1
Solving compressibleSystem:

Post-updating compressibleSystem:

max(p): 5.0656e+09, min(p): 120432
max(T): 9825.18, min(T): 342.791
ExecutionTime = 3.22 s  ClockTime = 4 s

Courant Number Mean/Max = 0.0408605, 0.498906
deltaT = 4.68129e-06
Time = 0.000303386

Calculating Fluxes
Euler: step 1
Solving compressibleSystem:

Post-updating compressibleSystem:

max(p): 4.89565e+09, min(p): 120601
max(T): 9850.49, min(T): 343.309
ExecutionTime = 3.26 s  ClockTime = 4 s

Courant Number Mean/Max = 0.0409299, 0.498102
deltaT = 4.68129e-06
Time = 0.000308067

Calculating Fluxes
Euler: step 1
Solving compressibleSystem:

Post-updating compressibleSystem:

max(p): 4.73312e+09, min(p): 121126
max(T): 8993.3, min(T): 344.813
ExecutionTime = 3.29 s  ClockTime = 4 s

Courant Number Mean/Max = 0.0410042, 0.496145
deltaT = 4.68129e-06
Time = 0.000312749

Calculating Fluxes
Euler: step 1
Solving compressibleSystem:

Post-updating compressibleSystem:

max(p): 4.5778e+09, min(p): 121651
max(T): 8800.67, min(T): 346.007
ExecutionTime = 3.33 s  ClockTime = 4 s

Courant Number Mean/Max = 0.0410793, 0.492454
deltaT = 4.68129e-06
Time = 0.00031743

Calculating Fluxes
Euler: step 1
Solving compressibleSystem:

Post-updating compressibleSystem:

max(p): 4.43339e+09, min(p): 121609
max(T): 9016.02, min(T): 345.91
ExecutionTime = 3.37 s  ClockTime = 4 s

Courant Number Mean/Max = 0.0411648, 0.48942
deltaT = 4.68129e-06
Time = 0.000322111

Calculating Fluxes
Euler: step 1
Solving compressibleSystem:

Post-updating compressibleSystem:

max(p): 4.30032e+09, min(p): 121608
max(T): 9069.27, min(T): 345.9
ExecutionTime = 3.41 s  ClockTime = 4 s

Courant Number Mean/Max = 0.0412509, 0.485164
deltaT = 4.80781e-06
Time = 0.000326919

Calculating Fluxes
Euler: step 1
Solving compressibleSystem:

Post-updating compressibleSystem:

max(p): 4.16917e+09, min(p): 121540
max(T): 9270.17, min(T): 345.721
ExecutionTime = 3.44 s  ClockTime = 4 s

Courant Number Mean/Max = 0.0424671, 0.501304
deltaT = 4.67787e-06
Time = 0.000331597

Calculating Fluxes
Euler: step 1
Solving compressibleSystem:

Post-updating compressibleSystem:

max(p): 4.04668e+09, min(p): 121460
max(T): 9097.1, min(T): 345.516
ExecutionTime = 3.48 s  ClockTime = 4 s

Courant Number Mean/Max = 0.0414161, 0.489036
deltaT = 4.67787e-06
Time = 0.000336275

Calculating Fluxes
Euler: step 1
Solving compressibleSystem:

Post-updating compressibleSystem:

max(p): 3.92893e+09, min(p): 121426
max(T): 8777.85, min(T): 345.408
ExecutionTime = 3.51 s  ClockTime = 4 s

Courant Number Mean/Max = 0.0415177, 0.488716
deltaT = 4.67787e-06
Time = 0.000340953

Calculating Fluxes
Euler: step 1
Solving compressibleSystem:

Post-updating compressibleSystem:

max(p): 3.81572e+09, min(p): 121477
max(T): 8841.98, min(T): 345.522
ExecutionTime = 3.55 s  ClockTime = 4 s

Courant Number Mean/Max = 0.0416222, 0.487785
deltaT = 4.67787e-06
Time = 0.00034563

Calculating Fluxes
Euler: step 1
Solving compressibleSystem:

Post-updating compressibleSystem:

max(p): 3.70708e+09, min(p): 121522
max(T): 9297.47, min(T): 345.665
ExecutionTime = 3.58 s  ClockTime = 4 s

Courant Number Mean/Max = 0.04173, 0.485222
deltaT = 4.67787e-06
Time = 0.000350308

Calculating Fluxes
Euler: step 1
Solving compressibleSystem:

Post-updating compressibleSystem:

max(p): 3.60261e+09, min(p): 121503
max(T): 9486.96, min(T): 345.606
ExecutionTime = 3.62 s  ClockTime = 4 s

Courant Number Mean/Max = 0.0418405, 0.48343
deltaT = 4.82877e-06
Time = 0.000355137

Calculating Fluxes
Euler: step 1
Solving compressibleSystem:

Post-updating compressibleSystem:

max(p): 3.49896e+09, min(p): 121355
max(T): 9646.42, min(T): 345.032
ExecutionTime = 3.66 s  ClockTime = 4 s

Courant Number Mean/Max = 0.0433112, 0.495571
deltaT = 4.82877e-06
Time = 0.000359966

Calculating Fluxes
Euler: step 1
Solving compressibleSystem:

Post-updating compressibleSystem:

max(p): 3.39946e+09, min(p): 121101
max(T): 9857.91, min(T): 344.375
ExecutionTime = 3.69 s  ClockTime = 4 s

Courant Number Mean/Max = 0.0434306, 0.496846
deltaT = 4.82877e-06
Time = 0.000364795

Calculating Fluxes
Euler: step 1
Solving compressibleSystem:

Post-updating compressibleSystem:

max(p): 3.30414e+09, min(p): 120827
max(T): 9897.31, min(T): 343.662
ExecutionTime = 3.73 s  ClockTime = 4 s

Courant Number Mean/Max = 0.0435502, 0.498764
deltaT = 4.82877e-06
Time = 0.000369623

Calculating Fluxes
Euler: step 1
Solving compressibleSystem:

Post-updating compressibleSystem:

max(p): 3.21281e+09, min(p): 120544
max(T): 9863.16, min(T): 342.924
ExecutionTime = 3.77 s  ClockTime = 4 s

Courant Number Mean/Max = 0.0436751, 0.49877
deltaT = 4.82877e-06
Time = 0.000374452

Calculating Fluxes
Euler: step 1
Solving compressibleSystem:

Post-updating compressibleSystem:

max(p): 3.12525e+09, min(p): 120286
max(T): 8989.43, min(T): 342.247
ExecutionTime = 3.8 s  ClockTime = 4 s

Courant Number Mean/Max = 0.0438032, 0.4981
deltaT = 4.82877e-06
Time = 0.000379281

Calculating Fluxes
Euler: step 1
Solving compressibleSystem:

Post-updating compressibleSystem:

max(p): 3.04125e+09, min(p): 120053
max(T): 8953.67, min(T): 341.637
ExecutionTime = 3.84 s  ClockTime = 4 s

Courant Number Mean/Max = 0.0439345, 0.496471
deltaT = 4.82877e-06
Time = 0.00038411

Calculating Fluxes
Euler: step 1
Solving compressibleSystem:

Post-updating compressibleSystem:

max(p): 2.96065e+09, min(p): 119828
max(T): 9166.37, min(T): 341.022
ExecutionTime = 3.88 s  ClockTime = 4 s

Courant Number Mean/Max = 0.0440691, 0.494795
deltaT = 4.82877e-06
Time = 0.000388938

Calculating Fluxes
Euler: step 1
Solving compressibleSystem:

Post-updating compressibleSystem:

max(p): 2.88326e+09, min(p): 119779
max(T): 9378.6, min(T): 340.876
ExecutionTime = 3.92 s  ClockTime = 4 s

Courant Number Mean/Max = 0.0442065, 0.491732
deltaT = 4.82877e-06
Time = 0.000393767

Calculating Fluxes
Euler: step 1
Solving compressibleSystem:

Post-updating compressibleSystem:

max(p): 2.80894e+09, min(p): 119890
max(T): 9410.34, min(T): 341.205
ExecutionTime = 3.95 s  ClockTime = 4 s

Courant Number Mean/Max = 0.0443464, 0.489074
deltaT = 4.82877e-06
Time = 0.000398596

Calculating Fluxes
Euler: step 1
Solving compressibleSystem:

Post-updating compressibleSystem:

max(p): 2.73753e+09, min(p): 119825
max(T): 9325.68, min(T): 341.033
ExecutionTime = 3.99 s  ClockTime = 4 s

Courant Number Mean/Max = 0.0444897, 0.491482
deltaT = 4.82877e-06
Time = 0.000403425

Calculating Fluxes
Euler: step 1
Solving compressibleSystem:

Post-updating compressibleSystem:

max(p): 2.66887e+09, min(p): 119600
max(T): 9127.93, min(T): 340.468
ExecutionTime = 4.02 s  ClockTime = 4 s

Courant Number Mean/Max = 0.0446366, 0.491853
deltaT = 4.82877e-06
Time = 0.000408253

Calculating Fluxes
Euler: step 1
Solving compressibleSystem:

Post-updating compressibleSystem:

max(p): 2.60283e+09, min(p): 119501
max(T): 8824.88, min(T): 340.205
ExecutionTime = 4.06 s  ClockTime = 4 s

Courant Number Mean/Max = 0.0447867, 0.491384
deltaT = 4.82877e-06
Time = 0.000413082

Calculating Fluxes
Euler: step 1
Solving compressibleSystem:

Post-updating compressibleSystem:

max(p): 2.53928e+09, min(p): 119656
max(T): 9211.3, min(T): 340.62
ExecutionTime = 4.1 s  ClockTime = 5 s

Courant Number Mean/Max = 0.0449396, 0.489749
deltaT = 4.82877e-06
Time = 0.000417911

Calculating Fluxes
Euler: step 1
Solving compressibleSystem:

Post-updating compressibleSystem:

max(p): 2.47828e+09, min(p): 119986
max(T): 9355.31, min(T): 341.632
ExecutionTime = 4.14 s  ClockTime = 5 s

Courant Number Mean/Max = 0.0450947, 0.488526
deltaT = 4.82877e-06
Time = 0.00042274

Calculating Fluxes
Euler: step 1
Solving compressibleSystem:

Post-updating compressibleSystem:

max(p): 2.41959e+09, min(p): 119816
max(T): 9604.92, min(T): 341.173
ExecutionTime = 4.18 s  ClockTime = 5 s

Courant Number Mean/Max = 0.0452516, 0.486993
deltaT = 4.82877e-06
Time = 0.000427569

Calculating Fluxes
Euler: step 1
Solving compressibleSystem:

Post-updating compressibleSystem:

max(p): 2.36302e+09, min(p): 119695
max(T): 9794.92, min(T): 340.866
ExecutionTime = 4.21 s  ClockTime = 5 s

Courant Number Mean/Max = 0.0454094, 0.485503
deltaT = 4.82877e-06
Time = 0.000432397

Calculating Fluxes
Euler: step 1
Solving compressibleSystem:

Post-updating compressibleSystem:

max(p): 2.30845e+09, min(p): 119783
max(T): 9891.15, min(T): 341.116
ExecutionTime = 4.25 s  ClockTime = 5 s

Courant Number Mean/Max = 0.0455638, 0.485957
deltaT = 4.82877e-06
Time = 0.000437226

Calculating Fluxes
Euler: step 1
Solving compressibleSystem:

Post-updating compressibleSystem:

max(p): 2.25576e+09, min(p): 119605
max(T): 9945.95, min(T): 340.486
ExecutionTime = 4.29 s  ClockTime = 5 s

Courant Number Mean/Max = 0.0457085, 0.48651
deltaT = 4.82877e-06
Time = 0.000442055

Calculating Fluxes
Euler: step 1
Solving compressibleSystem:

Post-updating compressibleSystem:

max(p): 2.20487e+09, min(p): 119379
max(T): 9102.04, min(T): 339.842
ExecutionTime = 4.32 s  ClockTime = 5 s

Courant Number Mean/Max = 0.0458702, 0.486144
deltaT = 4.82877e-06
Time = 0.000446884

Calculating Fluxes
Euler: step 1
Solving compressibleSystem:

Post-updating compressibleSystem:

max(p): 2.15567e+09, min(p): 119212
max(T): 9226.13, min(T): 339.338
ExecutionTime = 4.36 s  ClockTime = 5 s

Courant Number Mean/Max = 0.046038, 0.48461
deltaT = 4.82877e-06
Time = 0.000451712

Calculating Fluxes
Euler: step 1
Solving compressibleSystem:

Post-updating compressibleSystem:

max(p): 2.10806e+09, min(p): 119168
max(T): 9520.33, min(T): 339.144
ExecutionTime = 4.4 s  ClockTime = 5 s

Courant Number Mean/Max = 0.0462105, 0.483369
deltaT = 4.82877e-06
Time = 0.000456541

Calculating Fluxes
Euler: step 1
Solving compressibleSystem:

Post-updating compressibleSystem:

max(p): 2.06196e+09, min(p): 119382
max(T): 9733.11, min(T): 339.627
ExecutionTime = 4.44 s  ClockTime = 5 s

Courant Number Mean/Max = 0.0463931, 0.48348
deltaT = 4.82877e-06
Time = 0.00046137

Calculating Fluxes
Euler: step 1
Solving compressibleSystem:

Post-updating compressibleSystem:

max(p): 2.0173e+09, min(p): 119851
max(T): 9819.64, min(T): 340.795
ExecutionTime = 4.48 s  ClockTime = 5 s

Courant Number Mean/Max = 0.0465739, 0.483292
deltaT = 4.82877e-06
Time = 0.000466199

Calculating Fluxes
Euler: step 1
Solving compressibleSystem:

Post-updating compressibleSystem:

max(p): 1.974e+09, min(p): 121018
max(T): 9671.15, min(T): 343.768
ExecutionTime = 4.51 s  ClockTime = 5 s

Courant Number Mean/Max = 0.0467566, 0.481865
deltaT = 4.82877e-06
Time = 0.000471027

Calculating Fluxes
Euler: step 1
Solving compressibleSystem:

Post-updating compressibleSystem:

max(p): 1.93344e+09, min(p): 122386
max(T): 9493.28, min(T): 348.189
ExecutionTime = 4.55 s  ClockTime = 5 s

Courant Number Mean/Max = 0.0469395, 0.479549
deltaT = 4.82877e-06
Time = 0.000475856

Calculating Fluxes
Euler: step 1
Solving compressibleSystem:

Post-updating compressibleSystem:

max(p): 1.89455e+09, min(p): 122500
max(T): 9239.32, min(T): 348.189
ExecutionTime = 4.59 s  ClockTime = 5 s

Courant Number Mean/Max = 0.0471177, 0.477438
deltaT = 4.82877e-06
Time = 0.000480685

Calculating Fluxes
Euler: step 1
Solving compressibleSystem:

Post-updating compressibleSystem:

max(p): 1.85685e+09, min(p): 122500
max(T): 9621.45, min(T): 348.189
ExecutionTime = 4.62 s  ClockTime = 5 s

Courant Number Mean/Max = 0.0472967, 0.47639
deltaT = 4.82877e-06
Time = 0.000485514

Calculating Fluxes
Euler: step 1
Solving compressibleSystem:

Post-updating compressibleSystem:

max(p): 1.82025e+09, min(p): 122500
max(T): 9901.85, min(T): 348.189
ExecutionTime = 4.66 s  ClockTime = 5 s

Courant Number Mean/Max = 0.0474735, 0.475624
deltaT = 4.82877e-06
Time = 0.000490342

Calculating Fluxes
Euler: step 1
Solving compressibleSystem:

Post-updating compressibleSystem:

max(p): 1.7847e+09, min(p): 122500
max(T): 10121.1, min(T): 348.189
ExecutionTime = 4.7 s  ClockTime = 5 s

Courant Number Mean/Max = 0.0476471, 0.476133
deltaT = 4.82877e-06
Time = 0.000495171

Calculating Fluxes
Euler: step 1
Solving compressibleSystem:

Post-updating compressibleSystem:

max(p): 1.75015e+09, min(p): 122500
max(T): 10172, min(T): 348.189
ExecutionTime = 4.73 s  ClockTime = 5 s

Courant Number Mean/Max = 0.0478173, 0.476333
deltaT = 4.82877e-06
Time = 0.0005

Calculating Fluxes
Euler: step 1
Solving compressibleSystem:

Post-updating compressibleSystem:

max(p): 1.71661e+09, min(p): 122500
max(T): 10082.5, min(T): 348.189
ExecutionTime = 4.86 s  ClockTime = 5 s

Courant Number Mean/Max = 0.0479864, 0.47526
deltaT = 5.05051e-06
Time = 0.000505051

Calculating Fluxes
Euler: step 1
Solving compressibleSystem:

Post-updating compressibleSystem:

max(p): 1.68311e+09, min(p): 122500
max(T): 10584.3, min(T): 348.189
ExecutionTime = 4.9 s  ClockTime = 5 s

Courant Number Mean/Max = 0.050373, 0.495214
deltaT = 5.05051e-06
Time = 0.000510101

Calculating Fluxes
Euler: step 1
Solving compressibleSystem:

Post-updating compressibleSystem:

max(p): 1.65057e+09, min(p): 122500
max(T): 11133, min(T): 348.189
ExecutionTime = 4.94 s  ClockTime = 5 s

Courant Number Mean/Max = 0.0505518, 0.493154
deltaT = 5.10311e-06
Time = 0.000515204

Calculating Fluxes
Euler: step 1
Solving compressibleSystem:

Post-updating compressibleSystem:

max(p): 1.61861e+09, min(p): 122500
max(T): 11512.8, min(T): 348.189
ExecutionTime = 4.97 s  ClockTime = 5 s

Courant Number Mean/Max = 0.0512598, 0.495313
deltaT = 5.10311e-06
Time = 0.000520307

Calculating Fluxes
Euler: step 1
Solving compressibleSystem:

Post-updating compressibleSystem:

max(p): 1.58753e+09, min(p): 122500
max(T): 11771.8, min(T): 348.189
ExecutionTime = 5.01 s  ClockTime = 5 s

Courant Number Mean/Max = 0.0514399, 0.492804
deltaT = 5.15799e-06
Time = 0.000525465

Calculating Fluxes
Euler: step 1
Solving compressibleSystem:

Post-updating compressibleSystem:

max(p): 1.55697e+09, min(p): 122500
max(T): 11752.3, min(T): 348.189
ExecutionTime = 5.05 s  ClockTime = 5 s

Courant Number Mean/Max = 0.0521767, 0.495682
deltaT = 5.15799e-06
Time = 0.000530623

Calculating Fluxes
Euler: step 1
Solving compressibleSystem:

Post-updating compressibleSystem:

max(p): 1.52721e+09, min(p): 122500
max(T): 11459.1, min(T): 348.189
ExecutionTime = 5.08 s  ClockTime = 6 s

Courant Number Mean/Max = 0.0523598, 0.493119
deltaT = 5.2153e-06
Time = 0.000535839

Calculating Fluxes
Euler: step 1
Solving compressibleSystem:

Post-updating compressibleSystem:

max(p): 1.49789e+09, min(p): 122500
max(T): 10938.1, min(T): 348.189
ExecutionTime = 5.12 s  ClockTime = 6 s

Courant Number Mean/Max = 0.0531289, 0.497456
deltaT = 5.2153e-06
Time = 0.000541054

Calculating Fluxes
Euler: step 1
Solving compressibleSystem:

Post-updating compressibleSystem:

max(p): 1.46929e+09, min(p): 122500
max(T): 10312.1, min(T): 348.189
ExecutionTime = 5.17 s  ClockTime = 6 s

Courant Number Mean/Max = 0.0533178, 0.494974
deltaT = 5.2153e-06
Time = 0.000546269

Calculating Fluxes
Euler: step 1
Solving compressibleSystem:

Post-updating compressibleSystem:

max(p): 1.44136e+09, min(p): 122500
max(T): 9654.49, min(T): 348.189
ExecutionTime = 5.2 s  ClockTime = 6 s

Courant Number Mean/Max = 0.0535076, 0.491534
deltaT = 5.27594e-06
Time = 0.000551545

Calculating Fluxes
Euler: step 1
Solving compressibleSystem:

Post-updating compressibleSystem:

max(p): 1.41375e+09, min(p): 122500
max(T): 9675.05, min(T): 348.189
ExecutionTime = 5.24 s  ClockTime = 6 s

Courant Number Mean/Max = 0.0543242, 0.49492
deltaT = 5.27594e-06
Time = 0.000556821

Calculating Fluxes
Euler: step 1
Solving compressibleSystem:

Post-updating compressibleSystem:

max(p): 1.38674e+09, min(p): 122500
max(T): 10004.8, min(T): 348.189
ExecutionTime = 5.28 s  ClockTime = 6 s

Courant Number Mean/Max = 0.054518, 0.492277
deltaT = 5.33951e-06
Time = 0.00056216

Calculating Fluxes
Euler: step 1
Solving compressibleSystem:

Post-updating compressibleSystem:

max(p): 1.35996e+09, min(p): 122500
max(T): 10153.3, min(T): 348.189
ExecutionTime = 5.32 s  ClockTime = 6 s

Courant Number Mean/Max = 0.0553728, 0.494638
deltaT = 5.33951e-06
Time = 0.0005675

Calculating Fluxes
Euler: step 1
Solving compressibleSystem:

Post-updating compressibleSystem:

max(p): 1.33371e+09, min(p): 122500
max(T): 10217.8, min(T): 348.189
ExecutionTime = 5.36 s  ClockTime = 6 s

Courant Number Mean/Max = 0.05557, 0.491078
deltaT = 5.40625e-06
Time = 0.000572906

Calculating Fluxes
Euler: step 1
Solving compressibleSystem:

Post-updating compressibleSystem:

max(p): 1.30763e+09, min(p): 122500
max(T): 10169.9, min(T): 348.189
ExecutionTime = 5.4 s  ClockTime = 6 s

Courant Number Mean/Max = 0.0564656, 0.496038
deltaT = 5.40625e-06
Time = 0.000578312

Calculating Fluxes
Euler: step 1
Solving compressibleSystem:

Post-updating compressibleSystem:

max(p): 1.28202e+09, min(p): 122500
max(T): 9972.77, min(T): 348.189
ExecutionTime = 5.44 s  ClockTime = 6 s

Courant Number Mean/Max = 0.0566654, 0.494421
deltaT = 5.40625e-06
Time = 0.000583719

Calculating Fluxes
Euler: step 1
Solving compressibleSystem:

Post-updating compressibleSystem:

max(p): 1.2569e+09, min(p): 122500
max(T): 10043.4, min(T): 348.189
ExecutionTime = 5.48 s  ClockTime = 6 s

Courant Number Mean/Max = 0.0568628, 0.49226
deltaT = 5.47738e-06
Time = 0.000589196

Calculating Fluxes
Euler: step 1
Solving compressibleSystem:

Post-updating compressibleSystem:

max(p): 1.23285e+09, min(p): 122500
max(T): 10157.6, min(T): 348.189
ExecutionTime = 5.52 s  ClockTime = 6 s

Courant Number Mean/Max = 0.0578104, 0.496192
deltaT = 5.47738e-06
Time = 0.000594674

Calculating Fluxes
Euler: step 1
Solving compressibleSystem:

Post-updating compressibleSystem:

max(p): 1.20924e+09, min(p): 122500
max(T): 10184.1, min(T): 348.189
ExecutionTime = 5.56 s  ClockTime = 6 s

Courant Number Mean/Max = 0.0580096, 0.494352
deltaT = 5.47738e-06
Time = 0.000600151

Calculating Fluxes
Euler: step 1
Solving compressibleSystem:

Post-updating compressibleSystem:

max(p): 1.18606e+09, min(p): 122500
max(T): 10092.3, min(T): 348.189
ExecutionTime = 5.6 s  ClockTime = 6 s

Courant Number Mean/Max = 0.0582072, 0.491911
deltaT = 5.55346e-06
Time = 0.000605704

Calculating Fluxes
Euler: step 1
Solving compressibleSystem:

Post-updating compressibleSystem:

max(p): 1.16296e+09, min(p): 122500
max(T): 9864.11, min(T): 348.189
ExecutionTime = 5.63 s  ClockTime = 6 s

Courant Number Mean/Max = 0.0592183, 0.496843
deltaT = 5.55346e-06
Time = 0.000611258

Calculating Fluxes
Euler: step 1
Solving compressibleSystem:

Post-updating compressibleSystem:

max(p): 1.14024e+09, min(p): 122500
max(T): 9529.22, min(T): 348.189
ExecutionTime = 5.68 s  ClockTime = 6 s

Courant Number Mean/Max = 0.0594224, 0.49598
deltaT = 5.55346e-06
Time = 0.000616811

Calculating Fluxes
Euler: step 1
Solving compressibleSystem:

Post-updating compressibleSystem:

max(p): 1.11787e+09, min(p): 122500
max(T): 9115.71, min(T): 348.189
ExecutionTime = 5.71 s  ClockTime = 6 s

Courant Number Mean/Max = 0.0596255, 0.495078
deltaT = 5.55346e-06
Time = 0.000622365

Calculating Fluxes
Euler: step 1
Solving compressibleSystem:

Post-updating compressibleSystem:

max(p): 1.09585e+09, min(p): 122500
max(T): 8649.47, min(T): 348.189
ExecutionTime = 5.75 s  ClockTime = 6 s

Courant Number Mean/Max = 0.0598278, 0.494153
deltaT = 5.55346e-06
Time = 0.000627918

Calculating Fluxes
Euler: step 1
Solving compressibleSystem:

Post-updating compressibleSystem:

max(p): 1.07417e+09, min(p): 122500
max(T): 8469.64, min(T): 348.189
ExecutionTime = 5.79 s  ClockTime = 6 s

Courant Number Mean/Max = 0.0600322, 0.493242
deltaT = 5.55346e-06
Time = 0.000633472

Calculating Fluxes
Euler: step 1
Solving compressibleSystem:

Post-updating compressibleSystem:

max(p): 1.0531e+09, min(p): 122500
max(T): 8689.54, min(T): 348.189
ExecutionTime = 5.83 s  ClockTime = 6 s

Courant Number Mean/Max = 0.0602392, 0.492396
deltaT = 5.6389e-06
Time = 0.000639111

Calculating Fluxes
Euler: step 1
Solving compressibleSystem:

Post-updating compressibleSystem:

max(p): 1.03226e+09, min(p): 122500
max(T): 8812.59, min(T): 348.189
ExecutionTime = 5.87 s  ClockTime = 6 s

Courant Number Mean/Max = 0.0613834, 0.499167
deltaT = 5.6389e-06
Time = 0.000644749

Calculating Fluxes
Euler: step 1
Solving compressibleSystem:

Post-updating compressibleSystem:

max(p): 1.01178e+09, min(p): 122500
max(T): 8844.55, min(T): 348.189
ExecutionTime = 5.91 s  ClockTime = 6 s

Courant Number Mean/Max = 0.0616021, 0.498407
deltaT = 5.6389e-06
Time = 0.000650388

Calculating Fluxes
Euler: step 1
Solving compressibleSystem:

Post-updating compressibleSystem:

max(p): 9.91652e+08, min(p): 122500
max(T): 8793.78, min(T): 348.189
ExecutionTime = 5.95 s  ClockTime = 6 s

Courant Number Mean/Max = 0.0618234, 0.497657
deltaT = 5.6389e-06
Time = 0.000656027

Calculating Fluxes
Euler: step 1
Solving compressibleSystem:

Post-updating compressibleSystem:

max(p): 9.71891e+08, min(p): 122500
max(T): 8675.56, min(T): 348.189
ExecutionTime = 5.99 s  ClockTime = 6 s

Courant Number Mean/Max = 0.0620447, 0.496892
deltaT = 5.6389e-06
Time = 0.000661666

Calculating Fluxes
Euler: step 1
Solving compressibleSystem:

Post-updating compressibleSystem:

max(p): 9.52492e+08, min(p): 122500
max(T): 8555.39, min(T): 348.189
ExecutionTime = 6.03 s  ClockTime = 6 s

Courant Number Mean/Max = 0.0622685, 0.4961
deltaT = 5.6389e-06
Time = 0.000667305

Calculating Fluxes
Euler: step 1
Solving compressibleSystem:

Post-updating compressibleSystem:

max(p): 9.33458e+08, min(p): 122500
max(T): 8375.69, min(T): 348.189
ExecutionTime = 6.07 s  ClockTime = 7 s

Courant Number Mean/Max = 0.062491, 0.495263
deltaT = 5.6389e-06
Time = 0.000672944

Calculating Fluxes
Euler: step 1
Solving compressibleSystem:

Post-updating compressibleSystem:

max(p): 9.1479e+08, min(p): 122500
max(T): 8143.36, min(T): 348.189
ExecutionTime = 6.11 s  ClockTime = 7 s

Courant Number Mean/Max = 0.0627141, 0.494507
deltaT = 5.6389e-06
Time = 0.000678583

Calculating Fluxes
Euler: step 1
Solving compressibleSystem:

Post-updating compressibleSystem:

max(p): 8.96491e+08, min(p): 122500
max(T): 7870.65, min(T): 348.189
ExecutionTime = 6.15 s  ClockTime = 7 s

Courant Number Mean/Max = 0.0629388, 0.493827
deltaT = 5.6389e-06
Time = 0.000684222

Calculating Fluxes
Euler: step 1
Solving compressibleSystem:

Post-updating compressibleSystem:

max(p): 8.78565e+08, min(p): 122500
max(T): 7567.71, min(T): 348.189
ExecutionTime = 6.2 s  ClockTime = 7 s

Courant Number Mean/Max = 0.0631632, 0.49316
deltaT = 5.6389e-06
Time = 0.000689861

Calculating Fluxes
Euler: step 1
Solving compressibleSystem:

Post-updating compressibleSystem:

max(p): 8.61043e+08, min(p): 122500
max(T): 7245.87, min(T): 348.189
ExecutionTime = 6.24 s  ClockTime = 7 s

Courant Number Mean/Max = 0.0633876, 0.492411
deltaT = 5.6389e-06
Time = 0.0006955

Calculating Fluxes
Euler: step 1
Solving compressibleSystem:

Post-updating compressibleSystem:

max(p): 8.4393e+08, min(p): 122500
max(T): 6914.65, min(T): 348.189
ExecutionTime = 6.28 s  ClockTime = 7 s

Courant Number Mean/Max = 0.0636141, 0.491604
deltaT = 5.6389e-06
Time = 0.000701138

Calculating Fluxes
Euler: step 1
Solving compressibleSystem:

Post-updating compressibleSystem:

max(p): 8.27191e+08, min(p): 122500
max(T): 6583.81, min(T): 348.189
ExecutionTime = 6.31 s  ClockTime = 7 s

Courant Number Mean/Max = 0.0638415, 0.491103
deltaT = 5.6389e-06
Time = 0.000706777

Calculating Fluxes
Euler: step 1
Solving compressibleSystem:

Post-updating compressibleSystem:

max(p): 8.10827e+08, min(p): 122500
max(T): 6258.43, min(T): 348.189
ExecutionTime = 6.35 s  ClockTime = 7 s

Courant Number Mean/Max = 0.0640689, 0.490525
deltaT = 5.6389e-06
Time = 0.000712416

Calculating Fluxes
Euler: step 1
Solving compressibleSystem:

Post-updating compressibleSystem:

max(p): 7.94838e+08, min(p): 122500
max(T): 5942.17, min(T): 348.189
ExecutionTime = 6.4 s  ClockTime = 7 s

Courant Number Mean/Max = 0.0642989, 0.48987
deltaT = 5.75168e-06
Time = 0.000718168

Calculating Fluxes
Euler: step 1
Solving compressibleSystem:

Post-updating compressibleSystem:

max(p): 7.78912e+08, min(p): 122500
max(T): 6034.94, min(T): 348.189
ExecutionTime = 6.44 s  ClockTime = 7 s

Courant Number Mean/Max = 0.0658234, 0.498908
deltaT = 5.75168e-06
Time = 0.00072392

Calculating Fluxes
Euler: step 1
Solving compressibleSystem:

Post-updating compressibleSystem:

max(p): 7.63373e+08, min(p): 122500
max(T): 6282.2, min(T): 348.189
ExecutionTime = 6.48 s  ClockTime = 7 s

Courant Number Mean/Max = 0.0660617, 0.498073
deltaT = 5.75168e-06
Time = 0.000729671

Calculating Fluxes
Euler: step 1
Solving compressibleSystem:

Post-updating compressibleSystem:

max(p): 7.48219e+08, min(p): 122500
max(T): 6519.68, min(T): 348.189
ExecutionTime = 6.52 s  ClockTime = 7 s

Courant Number Mean/Max = 0.0663007, 0.497261
deltaT = 5.75168e-06
Time = 0.000735423

Calculating Fluxes
Euler: step 1
Solving compressibleSystem:

Post-updating compressibleSystem:

max(p): 7.33447e+08, min(p): 122500
max(T): 6709.59, min(T): 348.189
ExecutionTime = 6.56 s  ClockTime = 7 s

Courant Number Mean/Max = 0.0665401, 0.496579
deltaT = 5.75168e-06
Time = 0.000741175

Calculating Fluxes
Euler: step 1
Solving compressibleSystem:

Post-updating compressibleSystem:

max(p): 7.19054e+08, min(p): 122500
max(T): 6848.32, min(T): 348.189
ExecutionTime = 6.6 s  ClockTime = 7 s

Courant Number Mean/Max = 0.0667816, 0.495839
deltaT = 5.75168e-06
Time = 0.000746926

Calculating Fluxes
Euler: step 1
Solving compressibleSystem:

Post-updating compressibleSystem:

max(p): 7.05036e+08, min(p): 122500
max(T): 6933.52, min(T): 348.189
ExecutionTime = 6.64 s  ClockTime = 7 s

Courant Number Mean/Max = 0.0670241, 0.495044
deltaT = 5.75168e-06
Time = 0.000752678

Calculating Fluxes
Euler: step 1
Solving compressibleSystem:

Post-updating compressibleSystem:

max(p): 6.91388e+08, min(p): 122500
max(T): 6965.53, min(T): 348.189
ExecutionTime = 6.69 s  ClockTime = 7 s

Courant Number Mean/Max = 0.0672689, 0.494294
deltaT = 5.75168e-06
Time = 0.00075843

Calculating Fluxes
Euler: step 1
Solving compressibleSystem:

Post-updating compressibleSystem:

max(p): 6.78105e+08, min(p): 122500
max(T): 6948.27, min(T): 348.189
ExecutionTime = 6.72 s  ClockTime = 7 s

Courant Number Mean/Max = 0.067516, 0.493751
deltaT = 5.75168e-06
Time = 0.000764181

Calculating Fluxes
Euler: step 1
Solving compressibleSystem:

Post-updating compressibleSystem:

max(p): 6.6518e+08, min(p): 122500
max(T): 6887.28, min(T): 348.189
ExecutionTime = 6.76 s  ClockTime = 7 s

Courant Number Mean/Max = 0.0677652, 0.493154
deltaT = 5.75168e-06
Time = 0.000769933

Calculating Fluxes
Euler: step 1
Solving compressibleSystem:

Post-updating compressibleSystem:

max(p): 6.52709e+08, min(p): 122500
max(T): 6783.31, min(T): 348.189
ExecutionTime = 6.8 s  ClockTime = 7 s

Courant Number Mean/Max = 0.0680165, 0.492503
deltaT = 5.75168e-06
Time = 0.000775685

Calculating Fluxes
Euler: step 1
Solving compressibleSystem:

Post-updating compressibleSystem:

max(p): 6.41828e+08, min(p): 122500
max(T): 6642.69, min(T): 348.189
ExecutionTime = 6.84 s  ClockTime = 7 s

Courant Number Mean/Max = 0.0682702, 0.491798
deltaT = 5.75168e-06
Time = 0.000781436

Calculating Fluxes
Euler: step 1
Solving compressibleSystem:

Post-updating compressibleSystem:

max(p): 6.31486e+08, min(p): 122500
max(T): 6485.85, min(T): 348.189
ExecutionTime = 6.88 s  ClockTime = 7 s

Courant Number Mean/Max = 0.068526, 0.491042
deltaT = 5.75168e-06
Time = 0.000787188

Calculating Fluxes
Euler: step 1
Solving compressibleSystem:

Post-updating compressibleSystem:

max(p): 6.2133e+08, min(p): 122500
max(T): 6317.81, min(T): 348.189
ExecutionTime = 6.93 s  ClockTime = 7 s

Courant Number Mean/Max = 0.0687838, 0.490358
deltaT = 5.75168e-06
Time = 0.00079294

Calculating Fluxes
Euler: step 1
Solving compressibleSystem:

Post-updating compressibleSystem:

max(p): 6.11358e+08, min(p): 122500
max(T): 6263.21, min(T): 348.189
ExecutionTime = 6.96 s  ClockTime = 7 s

Courant Number Mean/Max = 0.0690433, 0.489757
deltaT = 5.75168e-06
Time = 0.000798691

Calculating Fluxes
Euler: step 1
Solving compressibleSystem:

Post-updating compressibleSystem:

max(p): 6.01568e+08, min(p): 122500
max(T): 6185.72, min(T): 348.189
ExecutionTime = 7.01 s  ClockTime = 7 s

Courant Number Mean/Max = 0.0693031, 0.489093
deltaT = 5.75168e-06
Time = 0.000804443

Calculating Fluxes
Euler: step 1
Solving compressibleSystem:

Post-updating compressibleSystem:

max(p): 5.91959e+08, min(p): 122500
max(T): 6133.86, min(T): 348.189
ExecutionTime = 7.05 s  ClockTime = 7 s

Courant Number Mean/Max = 0.0695624, 0.488373
deltaT = 5.75168e-06
Time = 0.000810195

Calculating Fluxes
Euler: step 1
Solving compressibleSystem:

Post-updating compressibleSystem:

max(p): 5.82529e+08, min(p): 122500
max(T): 6112.02, min(T): 348.189
ExecutionTime = 7.09 s  ClockTime = 8 s

Courant Number Mean/Max = 0.0698203, 0.487595
deltaT = 5.75168e-06
Time = 0.000815946

Calculating Fluxes
Euler: step 1
Solving compressibleSystem:

Post-updating compressibleSystem:

max(p): 5.73275e+08, min(p): 122500
max(T): 6180.22, min(T): 348.189
ExecutionTime = 7.13 s  ClockTime = 8 s

Courant Number Mean/Max = 0.0700772, 0.486757
deltaT = 5.75168e-06
Time = 0.000821698

Calculating Fluxes
Euler: step 1
Solving compressibleSystem:

Post-updating compressibleSystem:

max(p): 5.64196e+08, min(p): 122500
max(T): 6211.22, min(T): 348.189
ExecutionTime = 7.17 s  ClockTime = 8 s

Courant Number Mean/Max = 0.070333, 0.485854
deltaT = 5.75168e-06
Time = 0.00082745

Calculating Fluxes
Euler: step 1
Solving compressibleSystem:

Post-updating compressibleSystem:

max(p): 5.55367e+08, min(p): 122500
max(T): 6258.65, min(T): 348.189
ExecutionTime = 7.21 s  ClockTime = 8 s

Courant Number Mean/Max = 0.0705878, 0.484882
deltaT = 5.75168e-06
Time = 0.000833201

Calculating Fluxes
Euler: step 1
Solving compressibleSystem:

Post-updating compressibleSystem:

max(p): 5.46951e+08, min(p): 122500
max(T): 6301.2, min(T): 348.189
ExecutionTime = 7.25 s  ClockTime = 8 s

Courant Number Mean/Max = 0.0708422, 0.483846
deltaT = 5.75168e-06
Time = 0.000838953

Calculating Fluxes
Euler: step 1
Solving compressibleSystem:

Post-updating compressibleSystem:

max(p): 5.38709e+08, min(p): 122500
max(T): 6275.44, min(T): 348.189
ExecutionTime = 7.29 s  ClockTime = 8 s

Courant Number Mean/Max = 0.0710972, 0.48273
deltaT = 5.75168e-06
Time = 0.000844705

Calculating Fluxes
Euler: step 1
Solving compressibleSystem:

Post-updating compressibleSystem:

max(p): 5.30905e+08, min(p): 122500
max(T): 6193.18, min(T): 348.189
ExecutionTime = 7.33 s  ClockTime = 8 s

Courant Number Mean/Max = 0.0713539, 0.481525
deltaT = 5.97289e-06
Time = 0.000850678

Calculating Fluxes
Euler: step 1
Solving compressibleSystem:

Post-updating compressibleSystem:

max(p): 5.23059e+08, min(p): 122500
max(T): 6384.63, min(T): 348.189
ExecutionTime = 7.36 s  ClockTime = 8 s

Courant Number Mean/Max = 0.0743762, 0.498643
deltaT = 5.97289e-06
Time = 0.000856651

Calculating Fluxes
Euler: step 1
Solving compressibleSystem:

Post-updating compressibleSystem:

max(p): 5.1537e+08, min(p): 122500
max(T): 6504.53, min(T): 348.189
ExecutionTime = 7.41 s  ClockTime = 8 s

Courant Number Mean/Max = 0.0746578, 0.497129
deltaT = 5.97289e-06
Time = 0.000862623

Calculating Fluxes
Euler: step 1
Solving compressibleSystem:

Post-updating compressibleSystem:

max(p): 5.07831e+08, min(p): 122500
max(T): 6539.38, min(T): 348.189
ExecutionTime = 7.45 s  ClockTime = 8 s

Courant Number Mean/Max = 0.0749435, 0.495506
deltaT = 5.97289e-06
Time = 0.000868596

Calculating Fluxes
Euler: step 1
Solving compressibleSystem:

Post-updating compressibleSystem:

max(p): 5.00435e+08, min(p): 122500
max(T): 6565.13, min(T): 348.189
ExecutionTime = 7.48 s  ClockTime = 8 s

Courant Number Mean/Max = 0.0752335, 0.493779
deltaT = 5.97289e-06
Time = 0.000874569

Calculating Fluxes
Euler: step 1
Solving compressibleSystem:

Post-updating compressibleSystem:

max(p): 4.93177e+08, min(p): 122500
max(T): 6856.51, min(T): 348.189
ExecutionTime = 7.53 s  ClockTime = 8 s

Courant Number Mean/Max = 0.0755269, 0.491962
deltaT = 5.97289e-06
Time = 0.000880542

Calculating Fluxes
Euler: step 1
Solving compressibleSystem:

Post-updating compressibleSystem:

max(p): 4.8605e+08, min(p): 122500
max(T): 7103.23, min(T): 348.189
ExecutionTime = 7.57 s  ClockTime = 8 s

Courant Number Mean/Max = 0.0758228, 0.490064
deltaT = 5.97289e-06
Time = 0.000886515

Calculating Fluxes
Euler: step 1
Solving compressibleSystem:

Post-updating compressibleSystem:

max(p): 4.79052e+08, min(p): 122500
max(T): 7301.01, min(T): 348.189
ExecutionTime = 7.61 s  ClockTime = 8 s

Courant Number Mean/Max = 0.0761199, 0.4881
deltaT = 5.97289e-06
Time = 0.000892488

Calculating Fluxes
Euler: step 1
Solving compressibleSystem:

Post-updating compressibleSystem:

max(p): 4.72179e+08, min(p): 122500
max(T): 7446.58, min(T): 348.189
ExecutionTime = 7.65 s  ClockTime = 8 s

Courant Number Mean/Max = 0.0764168, 0.486085
deltaT = 5.97289e-06
Time = 0.000898461

Calculating Fluxes
Euler: step 1
Solving compressibleSystem:

Post-updating compressibleSystem:

max(p): 4.65427e+08, min(p): 122500
max(T): 7538.38, min(T): 348.189
ExecutionTime = 7.69 s  ClockTime = 8 s

Courant Number Mean/Max = 0.0767129, 0.484033
deltaT = 5.97289e-06
Time = 0.000904434

Calculating Fluxes
Euler: step 1
Solving compressibleSystem:

Post-updating compressibleSystem:

max(p): 4.58795e+08, min(p): 122500
max(T): 7576.6, min(T): 348.189
ExecutionTime = 7.72 s  ClockTime = 8 s

Courant Number Mean/Max = 0.0770074, 0.481961
deltaT = 5.97289e-06
Time = 0.000910407

Calculating Fluxes
Euler: step 1
Solving compressibleSystem:

Post-updating compressibleSystem:

max(p): 4.5228e+08, min(p): 122500
max(T): 7562.72, min(T): 348.189
ExecutionTime = 7.76 s  ClockTime = 8 s

Courant Number Mean/Max = 0.0773004, 0.479881
deltaT = 5.97289e-06
Time = 0.000916379

Calculating Fluxes
Euler: step 1
Solving compressibleSystem:

Post-updating compressibleSystem:

max(p): 4.4588e+08, min(p): 122500
max(T): 7500.19, min(T): 348.189
ExecutionTime = 7.81 s  ClockTime = 8 s

Courant Number Mean/Max = 0.0775922, 0.477806
deltaT = 5.97289e-06
Time = 0.000922352

Calculating Fluxes
Euler: step 1
Solving compressibleSystem:

Post-updating compressibleSystem:

max(p): 4.39593e+08, min(p): 122500
max(T): 7394.94, min(T): 348.189
ExecutionTime = 7.85 s  ClockTime = 8 s

Courant Number Mean/Max = 0.0778833, 0.475747
deltaT = 5.97289e-06
Time = 0.000928325

Calculating Fluxes
Euler: step 1
Solving compressibleSystem:

Post-updating compressibleSystem:

max(p): 4.33525e+08, min(p): 122500
max(T): 7248.98, min(T): 348.189
ExecutionTime = 7.89 s  ClockTime = 8 s

Courant Number Mean/Max = 0.0781738, 0.473711
deltaT = 5.97289e-06
Time = 0.000934298

Calculating Fluxes
Euler: step 1
Solving compressibleSystem:

Post-updating compressibleSystem:

max(p): 4.27699e+08, min(p): 122500
max(T): 7078.32, min(T): 348.189
ExecutionTime = 7.92 s  ClockTime = 8 s

Courant Number Mean/Max = 0.0784641, 0.472465
deltaT = 5.97289e-06
Time = 0.000940271

Calculating Fluxes
Euler: step 1
Solving compressibleSystem:

Post-updating compressibleSystem:

max(p): 4.21978e+08, min(p): 122500
max(T): 6892.82, min(T): 348.189
ExecutionTime = 7.96 s  ClockTime = 8 s

Courant Number Mean/Max = 0.0787549, 0.471286
deltaT = 5.97289e-06
Time = 0.000946244

Calculating Fluxes
Euler: step 1
Solving compressibleSystem:

Post-updating compressibleSystem:

max(p): 4.16362e+08, min(p): 122500
max(T): 6799.79, min(T): 348.189
ExecutionTime = 8 s  ClockTime = 8 s

Courant Number Mean/Max = 0.079047, 0.470061
deltaT = 5.97289e-06
Time = 0.000952217

Calculating Fluxes
Euler: step 1
Solving compressibleSystem:

Post-updating compressibleSystem:

max(p): 4.10847e+08, min(p): 122500
max(T): 6785.39, min(T): 348.189
ExecutionTime = 8.04 s  ClockTime = 8 s

Courant Number Mean/Max = 0.079341, 0.468795
deltaT = 5.97289e-06
Time = 0.00095819

Calculating Fluxes
Euler: step 1
Solving compressibleSystem:

Post-updating compressibleSystem:

max(p): 4.0543e+08, min(p): 122500
max(T): 6821.07, min(T): 348.189
ExecutionTime = 8.08 s  ClockTime = 9 s

Courant Number Mean/Max = 0.0796378, 0.467786
deltaT = 5.97289e-06
Time = 0.000964163

Calculating Fluxes
Euler: step 1
Solving compressibleSystem:

Post-updating compressibleSystem:

max(p): 4.00482e+08, min(p): 122500
max(T): 6809.57, min(T): 348.189
ExecutionTime = 8.12 s  ClockTime = 9 s

Courant Number Mean/Max = 0.0799374, 0.466806
deltaT = 5.97289e-06
Time = 0.000970136

Calculating Fluxes
Euler: step 1
Solving compressibleSystem:

Post-updating compressibleSystem:

max(p): 3.95776e+08, min(p): 122500
max(T): 6755.55, min(T): 348.189
ExecutionTime = 8.17 s  ClockTime = 9 s

Courant Number Mean/Max = 0.0802395, 0.465757
deltaT = 5.97289e-06
Time = 0.000976108

Calculating Fluxes
Euler: step 1
Solving compressibleSystem:

Post-updating compressibleSystem:

max(p): 3.91151e+08, min(p): 122500
max(T): 6768.28, min(T): 348.189
ExecutionTime = 8.2 s  ClockTime = 9 s

Courant Number Mean/Max = 0.0805439, 0.464617
deltaT = 5.97289e-06
Time = 0.000982081

Calculating Fluxes
Euler: step 1
Solving compressibleSystem:

Post-updating compressibleSystem:

max(p): 3.8661e+08, min(p): 122500
max(T): 6786.85, min(T): 348.189
ExecutionTime = 8.24 s  ClockTime = 9 s

Courant Number Mean/Max = 0.0808502, 0.463396
deltaT = 5.97289e-06
Time = 0.000988054

Calculating Fluxes
Euler: step 1
Solving compressibleSystem:

Post-updating compressibleSystem:

max(p): 3.82193e+08, min(p): 122500
max(T): 6769.7, min(T): 348.189
ExecutionTime = 8.28 s  ClockTime = 9 s

Courant Number Mean/Max = 0.0811574, 0.462147
deltaT = 5.97289e-06
Time = 0.000994027

Calculating Fluxes
Euler: step 1
Solving compressibleSystem:

Post-updating compressibleSystem:

max(p): 3.77901e+08, min(p): 122500
max(T): 6718.28, min(T): 348.189
ExecutionTime = 8.33 s  ClockTime = 9 s

Courant Number Mean/Max = 0.0814648, 0.460859
deltaT = 5.97289e-06
Time = 0.001

Calculating Fluxes
Euler: step 1
Solving compressibleSystem:

Post-updating compressibleSystem:

max(p): 3.73679e+08, min(p): 122500
max(T): 6635.24, min(T): 348.189
ExecutionTime = 8.47 s  ClockTime = 9 s

Courant Number Mean/Max = 0.0817714, 0.459529
deltaT = 6.49351e-06
Time = 0.00100649

Calculating Fluxes
Euler: step 1
Solving compressibleSystem:

Post-updating compressibleSystem:

max(p): 3.69165e+08, min(p): 122500
max(T): 6517.87, min(T): 348.189
ExecutionTime = 8.51 s  ClockTime = 9 s

Courant Number Mean/Max = 0.0892556, 0.497954
deltaT = 6.49351e-06
Time = 0.00101299

Calculating Fluxes
Euler: step 1
Solving compressibleSystem:

Post-updating compressibleSystem:

max(p): 3.64728e+08, min(p): 122500
max(T): 6643.13, min(T): 348.189
ExecutionTime = 8.55 s  ClockTime = 9 s

Courant Number Mean/Max = 0.0896097, 0.496265
deltaT = 6.49351e-06
Time = 0.00101948

Calculating Fluxes
Euler: step 1
Solving compressibleSystem:

Post-updating compressibleSystem:

max(p): 3.60365e+08, min(p): 122500
max(T): 7002.96, min(T): 348.189
ExecutionTime = 8.59 s  ClockTime = 9 s

Courant Number Mean/Max = 0.0899601, 0.494513
deltaT = 6.49351e-06
Time = 0.00102597

Calculating Fluxes
Euler: step 1
Solving compressibleSystem:

Post-updating compressibleSystem:

max(p): 3.56074e+08, min(p): 122500
max(T): 7318.62, min(T): 348.189
ExecutionTime = 8.64 s  ClockTime = 9 s

Courant Number Mean/Max = 0.090305, 0.492705
deltaT = 6.58369e-06
Time = 0.00103256

Calculating Fluxes
Euler: step 1
Solving compressibleSystem:

Post-updating compressibleSystem:

max(p): 3.51794e+08, min(p): 122500
max(T): 7589.83, min(T): 348.189
ExecutionTime = 8.68 s  ClockTime = 9 s

Courant Number Mean/Max = 0.0919065, 0.497637
deltaT = 6.58369e-06
Time = 0.00103914

Calculating Fluxes
Euler: step 1
Solving compressibleSystem:

Post-updating compressibleSystem:

max(p): 3.47583e+08, min(p): 122500
max(T): 7808.75, min(T): 348.189
ExecutionTime = 8.72 s  ClockTime = 9 s

Courant Number Mean/Max = 0.0922458, 0.496457
deltaT = 6.58369e-06
Time = 0.00104573

Calculating Fluxes
Euler: step 1
Solving compressibleSystem:

Post-updating compressibleSystem:

max(p): 3.43607e+08, min(p): 122500
max(T): 7972.49, min(T): 348.189
ExecutionTime = 8.76 s  ClockTime = 9 s

Courant Number Mean/Max = 0.0925755, 0.49546
deltaT = 6.58369e-06
Time = 0.00105231

Calculating Fluxes
Euler: step 1
Solving compressibleSystem:

Post-updating compressibleSystem:

max(p): 3.397e+08, min(p): 122500
max(T): 8079.15, min(T): 348.189
ExecutionTime = 8.8 s  ClockTime = 9 s

Courant Number Mean/Max = 0.0928946, 0.49452
deltaT = 6.58369e-06
Time = 0.00105889

Calculating Fluxes
Euler: step 1
Solving compressibleSystem:

Post-updating compressibleSystem:

max(p): 3.35857e+08, min(p): 122500
max(T): 8128.43, min(T): 348.189
ExecutionTime = 8.83 s  ClockTime = 9 s

Courant Number Mean/Max = 0.0932025, 0.493599
deltaT = 6.58369e-06
Time = 0.00106548

Calculating Fluxes
Euler: step 1
Solving compressibleSystem:

Post-updating compressibleSystem:

max(p): 3.32077e+08, min(p): 122500
max(T): 8120.81, min(T): 348.189
ExecutionTime = 8.87 s  ClockTime = 9 s

Courant Number Mean/Max = 0.0934998, 0.492692
deltaT = 6.58369e-06
Time = 0.00107206

Calculating Fluxes
Euler: step 1
Solving compressibleSystem:

Post-updating compressibleSystem:

max(p): 3.28356e+08, min(p): 122500
max(T): 8058.08, min(T): 348.189
ExecutionTime = 8.91 s  ClockTime = 9 s

Courant Number Mean/Max = 0.093787, 0.491797
deltaT = 6.68656e-06
Time = 0.00107875

Calculating Fluxes
Euler: step 1
Solving compressibleSystem:

Post-updating compressibleSystem:

max(p): 3.24634e+08, min(p): 122500
max(T): 7943.11, min(T): 348.189
ExecutionTime = 8.95 s  ClockTime = 9 s

Courant Number Mean/Max = 0.0955382, 0.498565
deltaT = 6.68656e-06
Time = 0.00108543

Calculating Fluxes
Euler: step 1
Solving compressibleSystem:

Post-updating compressibleSystem:

max(p): 3.20967e+08, min(p): 122500
max(T): 7783.54, min(T): 348.189
ExecutionTime = 8.99 s  ClockTime = 9 s

Courant Number Mean/Max = 0.0958145, 0.497653
deltaT = 6.68656e-06
Time = 0.00109212

Calculating Fluxes
Euler: step 1
Solving compressibleSystem:

Post-updating compressibleSystem:

max(p): 3.17353e+08, min(p): 122500
max(T): 7593.92, min(T): 348.189
ExecutionTime = 9.03 s  ClockTime = 9 s

Courant Number Mean/Max = 0.0960811, 0.496743
deltaT = 6.68656e-06
Time = 0.00109881

Calculating Fluxes
Euler: step 1
Solving compressibleSystem:

Post-updating compressibleSystem:

max(p): 3.1379e+08, min(p): 122500
max(T): 7381.43, min(T): 348.189
ExecutionTime = 9.07 s  ClockTime = 10 s

Courant Number Mean/Max = 0.096338, 0.495833
deltaT = 6.68656e-06
Time = 0.00110549

Calculating Fluxes
Euler: step 1
Solving compressibleSystem:

Post-updating compressibleSystem:

max(p): 3.10276e+08, min(p): 122500
max(T): 7362.89, min(T): 348.189
ExecutionTime = 9.11 s  ClockTime = 10 s

Courant Number Mean/Max = 0.0965857, 0.494921
deltaT = 6.68656e-06
Time = 0.00111218

Calculating Fluxes
Euler: step 1
Solving compressibleSystem:

Post-updating compressibleSystem:

max(p): 3.06809e+08, min(p): 122500
max(T): 7437.74, min(T): 348.189
ExecutionTime = 9.15 s  ClockTime = 10 s

Courant Number Mean/Max = 0.0968242, 0.494006
deltaT = 6.68656e-06
Time = 0.00111887

Calculating Fluxes
Euler: step 1
Solving compressibleSystem:

Post-updating compressibleSystem:

max(p): 3.03488e+08, min(p): 122500
max(T): 7454.06, min(T): 348.189
ExecutionTime = 9.19 s  ClockTime = 10 s

Courant Number Mean/Max = 0.0970534, 0.493085
deltaT = 6.68656e-06
Time = 0.00112555

Calculating Fluxes
Euler: step 1
Solving compressibleSystem:

Post-updating compressibleSystem:

max(p): 3.00255e+08, min(p): 122500
max(T): 7415.63, min(T): 348.189
ExecutionTime = 9.23 s  ClockTime = 10 s

Courant Number Mean/Max = 0.0972733, 0.492157
deltaT = 6.68656e-06
Time = 0.00113224

Calculating Fluxes
Euler: step 1
Solving compressibleSystem:

Post-updating compressibleSystem:

max(p): 2.97065e+08, min(p): 122500
max(T): 7329.73, min(T): 348.189
ExecutionTime = 9.27 s  ClockTime = 10 s

Courant Number Mean/Max = 0.0974838, 0.491221
deltaT = 6.68656e-06
Time = 0.00113893

Calculating Fluxes
Euler: step 1
Solving compressibleSystem:

Post-updating compressibleSystem:

max(p): 2.93917e+08, min(p): 122500
max(T): 7318.94, min(T): 348.189
ExecutionTime = 9.31 s  ClockTime = 10 s

Courant Number Mean/Max = 0.0976849, 0.490275
deltaT = 6.81273e-06
Time = 0.00114574

Calculating Fluxes
Euler: step 1
Solving compressibleSystem:

Post-updating compressibleSystem:

max(p): 2.90768e+08, min(p): 122500
max(T): 7336.02, min(T): 348.189
ExecutionTime = 9.35 s  ClockTime = 10 s

Courant Number Mean/Max = 0.0997268, 0.498533
deltaT = 6.81273e-06
Time = 0.00115255

Calculating Fluxes
Euler: step 1
Solving compressibleSystem:

Post-updating compressibleSystem:

max(p): 2.8779e+08, min(p): 122500
max(T): 7309.52, min(T): 348.189
ExecutionTime = 9.38 s  ClockTime = 10 s

Courant Number Mean/Max = 0.0999164, 0.49753
deltaT = 6.81273e-06
Time = 0.00115936

Calculating Fluxes
Euler: step 1
Solving compressibleSystem:

Post-updating compressibleSystem:

max(p): 2.84847e+08, min(p): 122500
max(T): 7242.22, min(T): 348.189
ExecutionTime = 9.42 s  ClockTime = 10 s

Courant Number Mean/Max = 0.100097, 0.496516
deltaT = 6.81273e-06
Time = 0.00116618

Calculating Fluxes
Euler: step 1
Solving compressibleSystem:

Post-updating compressibleSystem:

max(p): 2.81936e+08, min(p): 122500
max(T): 7137.58, min(T): 348.189
ExecutionTime = 9.46 s  ClockTime = 10 s

Courant Number Mean/Max = 0.100271, 0.495491
deltaT = 6.81273e-06
Time = 0.00117299

Calculating Fluxes
Euler: step 1
Solving compressibleSystem:

Post-updating compressibleSystem:

max(p): 2.79056e+08, min(p): 122500
max(T): 7414.91, min(T): 348.189
ExecutionTime = 9.5 s  ClockTime = 10 s

Courant Number Mean/Max = 0.100436, 0.494452
deltaT = 6.81273e-06
Time = 0.0011798

Calculating Fluxes
Euler: step 1
Solving compressibleSystem:

Post-updating compressibleSystem:

max(p): 2.76208e+08, min(p): 122500
max(T): 7733.03, min(T): 348.189
ExecutionTime = 9.54 s  ClockTime = 10 s

Courant Number Mean/Max = 0.100595, 0.493421
deltaT = 6.81273e-06
Time = 0.00118661

Calculating Fluxes
Euler: step 1
Solving compressibleSystem:

Post-updating compressibleSystem:

max(p): 2.7339e+08, min(p): 122500
max(T): 8003.43, min(T): 348.189
ExecutionTime = 9.59 s  ClockTime = 10 s

Courant Number Mean/Max = 0.100748, 0.492491
deltaT = 6.81273e-06
Time = 0.00119343

Calculating Fluxes
Euler: step 1
Solving compressibleSystem:

Post-updating compressibleSystem:

max(p): 2.70601e+08, min(p): 122500
max(T): 8224.81, min(T): 348.189
ExecutionTime = 9.63 s  ClockTime = 10 s

Courant Number Mean/Max = 0.100894, 0.491541
deltaT = 6.81273e-06
Time = 0.00120024

Calculating Fluxes
Euler: step 1
Solving compressibleSystem:

Post-updating compressibleSystem:

max(p): 2.67841e+08, min(p): 122500
max(T): 8395.76, min(T): 348.189
ExecutionTime = 9.67 s  ClockTime = 10 s

Courant Number Mean/Max = 0.101032, 0.490572
deltaT = 6.81273e-06
Time = 0.00120705

Calculating Fluxes
Euler: step 1
Solving compressibleSystem:

Post-updating compressibleSystem:

max(p): 2.65107e+08, min(p): 122500
max(T): 8514.9, min(T): 348.189
ExecutionTime = 9.71 s  ClockTime = 10 s

Courant Number Mean/Max = 0.101164, 0.489583
deltaT = 6.81273e-06
Time = 0.00121387

Calculating Fluxes
Euler: step 1
Solving compressibleSystem:

Post-updating compressibleSystem:

max(p): 2.62401e+08, min(p): 122500
max(T): 8581.6, min(T): 348.189
ExecutionTime = 9.75 s  ClockTime = 10 s

Courant Number Mean/Max = 0.101289, 0.488574
deltaT = 6.81273e-06
Time = 0.00122068

Calculating Fluxes
Euler: step 1
Solving compressibleSystem:

Post-updating compressibleSystem:

max(p): 2.59838e+08, min(p): 122500
max(T): 8595.58, min(T): 348.189
ExecutionTime = 9.79 s  ClockTime = 10 s

Courant Number Mean/Max = 0.101408, 0.487547
deltaT = 6.98304e-06
Time = 0.00122766

Calculating Fluxes
Euler: step 1
Solving compressibleSystem:

Post-updating compressibleSystem:

max(p): 2.5724e+08, min(p): 122500
max(T): 8556.49, min(T): 348.189
ExecutionTime = 9.83 s  ClockTime = 10 s

Courant Number Mean/Max = 0.10406, 0.498636
deltaT = 6.98304e-06
Time = 0.00123464

Calculating Fluxes
Euler: step 1
Solving compressibleSystem:

Post-updating compressibleSystem:

max(p): 2.54667e+08, min(p): 122500
max(T): 8464.14, min(T): 348.189
ExecutionTime = 9.87 s  ClockTime = 10 s

Courant Number Mean/Max = 0.104173, 0.497517
deltaT = 6.98304e-06
Time = 0.00124163

Calculating Fluxes
Euler: step 1
Solving compressibleSystem:

Post-updating compressibleSystem:

max(p): 2.52169e+08, min(p): 122500
max(T): 8324.04, min(T): 348.189
ExecutionTime = 9.91 s  ClockTime = 10 s

Courant Number Mean/Max = 0.10428, 0.496378
deltaT = 6.98304e-06
Time = 0.00124861

Calculating Fluxes
Euler: step 1
Solving compressibleSystem:

Post-updating compressibleSystem:

max(p): 2.49789e+08, min(p): 122500
max(T): 8148.93, min(T): 348.189
ExecutionTime = 9.95 s  ClockTime = 10 s

Courant Number Mean/Max = 0.104384, 0.495222
deltaT = 6.98304e-06
Time = 0.00125559

Calculating Fluxes
Euler: step 1
Solving compressibleSystem:

Post-updating compressibleSystem:

max(p): 2.47438e+08, min(p): 122500
max(T): 7944.22, min(T): 348.189
ExecutionTime = 9.99 s  ClockTime = 10 s

Courant Number Mean/Max = 0.104485, 0.494048
deltaT = 6.98304e-06
Time = 0.00126258

Calculating Fluxes
Euler: step 1
Solving compressibleSystem:

Post-updating compressibleSystem:

max(p): 2.45113e+08, min(p): 122500
max(T): 7879.64, min(T): 348.189
ExecutionTime = 10.02 s  ClockTime = 10 s

Courant Number Mean/Max = 0.104582, 0.492859
deltaT = 6.98304e-06
Time = 0.00126956

Calculating Fluxes
Euler: step 1
Solving compressibleSystem:

Post-updating compressibleSystem:

max(p): 2.42811e+08, min(p): 122500
max(T): 7970.12, min(T): 348.189
ExecutionTime = 10.06 s  ClockTime = 11 s

Courant Number Mean/Max = 0.104676, 0.491656
deltaT = 6.98304e-06
Time = 0.00127654

Calculating Fluxes
Euler: step 1
Solving compressibleSystem:

Post-updating compressibleSystem:

max(p): 2.40532e+08, min(p): 122500
max(T): 8002.29, min(T): 348.189
ExecutionTime = 10.11 s  ClockTime = 11 s

Courant Number Mean/Max = 0.104766, 0.490441
deltaT = 6.98304e-06
Time = 0.00128353

Calculating Fluxes
Euler: step 1
Solving compressibleSystem:

Post-updating compressibleSystem:

max(p): 2.38275e+08, min(p): 122500
max(T): 7979.63, min(T): 348.189
ExecutionTime = 10.15 s  ClockTime = 11 s

Courant Number Mean/Max = 0.104852, 0.489217
deltaT = 6.98304e-06
Time = 0.00129051

Calculating Fluxes
Euler: step 1
Solving compressibleSystem:

Post-updating compressibleSystem:

max(p): 2.36037e+08, min(p): 122500
max(T): 7907.49, min(T): 348.189
ExecutionTime = 10.19 s  ClockTime = 11 s

Courant Number Mean/Max = 0.104935, 0.487985
deltaT = 6.98304e-06
Time = 0.00129749

Calculating Fluxes
Euler: step 1
Solving compressibleSystem:

Post-updating compressibleSystem:

max(p): 2.33819e+08, min(p): 122500
max(T): 7796.8, min(T): 348.189
ExecutionTime = 10.23 s  ClockTime = 11 s

Courant Number Mean/Max = 0.105014, 0.486748
deltaT = 6.98304e-06
Time = 0.00130447

Calculating Fluxes
Euler: step 1
[...]

Courant Number Mean/Max = 0.0901924, 0.394417
deltaT = 1e-05
Time = 0.0093

Calculating Fluxes
Euler: step 1
Solving compressibleSystem:

Post-updating compressibleSystem:

max(p): 759076, min(p): 1183.99
max(T): 1050.36, min(T): 666.842
ExecutionTime = 46.19 s  ClockTime = 47 s

Courant Number Mean/Max = 0.0901719, 0.394295
deltaT = 1e-05
Time = 0.00931

Calculating Fluxes
Euler: step 1
Solving compressibleSystem:

Post-updating compressibleSystem:

max(p): 755618, min(p): 1173.93
max(T): 1050.1, min(T): 666.493
ExecutionTime = 46.23 s  ClockTime = 47 s

Courant Number Mean/Max = 0.0901511, 0.394156
deltaT = 1e-05
Time = 0.00932

Calculating Fluxes
Euler: step 1
Solving compressibleSystem:

Post-updating compressibleSystem:

max(p): 752163, min(p): 1164.21
max(T): 1049.85, min(T): 666.139
ExecutionTime = 46.26 s  ClockTime = 47 s

Courant Number Mean/Max = 0.0901302, 0.393999
deltaT = 1e-05
Time = 0.00933

Calculating Fluxes
Euler: step 1
Solving compressibleSystem:

Post-updating compressibleSystem:

max(p): 748711, min(p): 1154.85
max(T): 1049.59, min(T): 665.778
ExecutionTime = 46.3 s  ClockTime = 47 s

Courant Number Mean/Max = 0.0901091, 0.393825
deltaT = 1e-05
Time = 0.00934

Calculating Fluxes
Euler: step 1
Solving compressibleSystem:

Post-updating compressibleSystem:

max(p): 745263, min(p): 1145.83
max(T): 1049.34, min(T): 665.41
ExecutionTime = 46.34 s  ClockTime = 47 s

Courant Number Mean/Max = 0.0900882, 0.393633
deltaT = 1e-05
Time = 0.00935

Calculating Fluxes
Euler: step 1
Solving compressibleSystem:

Post-updating compressibleSystem:

max(p): 741819, min(p): 1137.15
max(T): 1049.08, min(T): 665.034
ExecutionTime = 46.38 s  ClockTime = 47 s

Courant Number Mean/Max = 0.090067, 0.393426
deltaT = 1e-05
Time = 0.00936

Calculating Fluxes
Euler: step 1
Solving compressibleSystem:

Post-updating compressibleSystem:

max(p): 738379, min(p): 1128.8
max(T): 1048.82, min(T): 664.65
ExecutionTime = 46.41 s  ClockTime = 47 s

Courant Number Mean/Max = 0.0900458, 0.393204
deltaT = 1e-05
Time = 0.00937

Calculating Fluxes
Euler: step 1
Solving compressibleSystem:

Post-updating compressibleSystem:

max(p): 734943, min(p): 1120.75
max(T): 1048.57, min(T): 664.258
ExecutionTime = 46.45 s  ClockTime = 47 s

Courant Number Mean/Max = 0.0900248, 0.393037
deltaT = 1e-05
Time = 0.00938

Calculating Fluxes
Euler: step 1
Solving compressibleSystem:

Post-updating compressibleSystem:

max(p): 731511, min(p): 1113.01
max(T): 1048.31, min(T): 663.858
ExecutionTime = 46.49 s  ClockTime = 47 s

Courant Number Mean/Max = 0.0900039, 0.392943
deltaT = 1e-05
Time = 0.00939

Calculating Fluxes
Euler: step 1
Solving compressibleSystem:

Post-updating compressibleSystem:

max(p): 728084, min(p): 1105.59
max(T): 1048.05, min(T): 663.448
ExecutionTime = 46.53 s  ClockTime = 47 s

Courant Number Mean/Max = 0.0899829, 0.392876
deltaT = 1e-05
Time = 0.0094

Calculating Fluxes
Euler: step 1
Solving compressibleSystem:

Post-updating compressibleSystem:

max(p): 724661, min(p): 1098.59
max(T): 1047.79, min(T): 663.03
ExecutionTime = 46.57 s  ClockTime = 47 s

Courant Number Mean/Max = 0.0899618, 0.392807
deltaT = 1e-05
Time = 0.00941

Calculating Fluxes
Euler: step 1
Solving compressibleSystem:

Post-updating compressibleSystem:

max(p): 721243, min(p): 1091.97
max(T): 1047.53, min(T): 662.605
ExecutionTime = 46.62 s  ClockTime = 47 s

Courant Number Mean/Max = 0.0899409, 0.392737
deltaT = 1e-05
Time = 0.00942

Calculating Fluxes
Euler: step 1
Solving compressibleSystem:

Post-updating compressibleSystem:

max(p): 717831, min(p): 1085.71
max(T): 1047.27, min(T): 662.175
ExecutionTime = 46.65 s  ClockTime = 47 s

Courant Number Mean/Max = 0.0899198, 0.392666
deltaT = 1e-05
Time = 0.00943

Calculating Fluxes
Euler: step 1
Solving compressibleSystem:

Post-updating compressibleSystem:

max(p): 714424, min(p): 1079.8
max(T): 1047.01, min(T): 661.739
ExecutionTime = 46.69 s  ClockTime = 47 s

Courant Number Mean/Max = 0.0898986, 0.392593
deltaT = 1e-05
Time = 0.00944

Calculating Fluxes
Euler: step 1
Solving compressibleSystem:

Post-updating compressibleSystem:

max(p): 711022, min(p): 1074.2
max(T): 1046.75, min(T): 661.298
ExecutionTime = 46.73 s  ClockTime = 47 s

Courant Number Mean/Max = 0.0898778, 0.392519
deltaT = 1e-05
Time = 0.00945

Calculating Fluxes
Euler: step 1
Solving compressibleSystem:

Post-updating compressibleSystem:

max(p): 707626, min(p): 1068.9
max(T): 1046.49, min(T): 660.854
ExecutionTime = 46.77 s  ClockTime = 47 s

Courant Number Mean/Max = 0.0898569, 0.392442
deltaT = 1e-05
Time = 0.00946

Calculating Fluxes
Euler: step 1
Solving compressibleSystem:

Post-updating compressibleSystem:

max(p): 704236, min(p): 1063.88
max(T): 1046.23, min(T): 660.406
ExecutionTime = 46.81 s  ClockTime = 48 s

Courant Number Mean/Max = 0.0898364, 0.392364
deltaT = 1e-05
Time = 0.00947

Calculating Fluxes
Euler: step 1
Solving compressibleSystem:

Post-updating compressibleSystem:

max(p): 700852, min(p): 1059.1
max(T): 1045.97, min(T): 659.955
ExecutionTime = 46.85 s  ClockTime = 48 s

Courant Number Mean/Max = 0.0898164, 0.392284
deltaT = 1e-05
Time = 0.00948

Calculating Fluxes
Euler: step 1
Solving compressibleSystem:

Post-updating compressibleSystem:

max(p): 697474, min(p): 1054.54
max(T): 1045.7, min(T): 659.499
ExecutionTime = 46.89 s  ClockTime = 48 s

Courant Number Mean/Max = 0.0897967, 0.3922
deltaT = 1e-05
Time = 0.00949

Calculating Fluxes
Euler: step 1
Solving compressibleSystem:

Post-updating compressibleSystem:

max(p): 694103, min(p): 1050.16
max(T): 1045.44, min(T): 659.04
ExecutionTime = 46.93 s  ClockTime = 48 s

Courant Number Mean/Max = 0.089777, 0.392114
deltaT = 1e-05
Time = 0.0095

Calculating Fluxes
Euler: step 1
Solving compressibleSystem:

Post-updating compressibleSystem:

max(p): 690739, min(p): 1045.97
max(T): 1045.18, min(T): 658.58
ExecutionTime = 47.06 s  ClockTime = 48 s

Courant Number Mean/Max = 0.0897575, 0.392024
deltaT = 1e-05
Time = 0.00951

Calculating Fluxes
Euler: step 1
Solving compressibleSystem:

Post-updating compressibleSystem:

max(p): 687386, min(p): 1041.95
max(T): 1044.91, min(T): 658.119
ExecutionTime = 47.1 s  ClockTime = 48 s

Courant Number Mean/Max = 0.0897378, 0.391932
deltaT = 1e-05
Time = 0.00952

Calculating Fluxes
Euler: step 1
Solving compressibleSystem:

Post-updating compressibleSystem:

max(p): 684058, min(p): 1038.11
max(T): 1044.65, min(T): 657.659
ExecutionTime = 47.14 s  ClockTime = 48 s

Courant Number Mean/Max = 0.0897178, 0.391838
deltaT = 1e-05
Time = 0.00953

Calculating Fluxes
Euler: step 1
Solving compressibleSystem:

Post-updating compressibleSystem:

max(p): 680737, min(p): 1034.45
max(T): 1044.38, min(T): 657.201
ExecutionTime = 47.19 s  ClockTime = 48 s

Courant Number Mean/Max = 0.0896977, 0.391741
deltaT = 1e-05
Time = 0.00954

Calculating Fluxes
Euler: step 1
Solving compressibleSystem:

Post-updating compressibleSystem:

max(p): 677423, min(p): 1030.95
max(T): 1044.12, min(T): 656.746
ExecutionTime = 47.23 s  ClockTime = 48 s

Courant Number Mean/Max = 0.0896777, 0.391642
deltaT = 1e-05
Time = 0.00955

Calculating Fluxes
Euler: step 1
Solving compressibleSystem:

Post-updating compressibleSystem:

max(p): 674116, min(p): 1027.56
max(T): 1043.85, min(T): 656.295
ExecutionTime = 47.26 s  ClockTime = 48 s

Courant Number Mean/Max = 0.0896574, 0.39154
deltaT = 1e-05
Time = 0.00956

Calculating Fluxes
Euler: step 1
Solving compressibleSystem:

Post-updating compressibleSystem:

max(p): 670818, min(p): 1024.26
max(T): 1043.58, min(T): 655.848
ExecutionTime = 47.31 s  ClockTime = 48 s

Courant Number Mean/Max = 0.0896369, 0.391436
deltaT = 1e-05
Time = 0.00957

Calculating Fluxes
Euler: step 1
Solving compressibleSystem:

Post-updating compressibleSystem:

max(p): 667527, min(p): 1020.75
max(T): 1043.31, min(T): 655.407
ExecutionTime = 47.35 s  ClockTime = 48 s

Courant Number Mean/Max = 0.0896166, 0.391333
deltaT = 1e-05
Time = 0.00958

Calculating Fluxes
Euler: step 1
Solving compressibleSystem:

Post-updating compressibleSystem:

max(p): 664245, min(p): 1014.06
max(T): 1043.05, min(T): 654.972
ExecutionTime = 47.39 s  ClockTime = 48 s

Courant Number Mean/Max = 0.0895961, 0.39123
deltaT = 1e-05
Time = 0.00959

Calculating Fluxes
Euler: step 1
Solving compressibleSystem:

Post-updating compressibleSystem:

max(p): 660971, min(p): 1005.64
max(T): 1042.78, min(T): 654.543
ExecutionTime = 47.43 s  ClockTime = 48 s

Courant Number Mean/Max = 0.0895755, 0.391132
deltaT = 1e-05
Time = 0.0096

Calculating Fluxes
Euler: step 1
Solving compressibleSystem:

Post-updating compressibleSystem:

max(p): 657705, min(p): 997.628
max(T): 1042.51, min(T): 654.122
ExecutionTime = 47.47 s  ClockTime = 48 s

Courant Number Mean/Max = 0.0895551, 0.391039
deltaT = 1e-05
Time = 0.00961

Calculating Fluxes
Euler: step 1
Solving compressibleSystem:

Post-updating compressibleSystem:

max(p): 654448, min(p): 989.923
max(T): 1042.24, min(T): 653.708
ExecutionTime = 47.51 s  ClockTime = 48 s

Courant Number Mean/Max = 0.089535, 0.390952
deltaT = 1e-05
Time = 0.00962

Calculating Fluxes
Euler: step 1
Solving compressibleSystem:

Post-updating compressibleSystem:

max(p): 651200, min(p): 982.479
max(T): 1041.97, min(T): 653.304
ExecutionTime = 47.55 s  ClockTime = 48 s

Courant Number Mean/Max = 0.0895151, 0.390873
deltaT = 1e-05
Time = 0.00963

Calculating Fluxes
Euler: step 1
Solving compressibleSystem:

Post-updating compressibleSystem:

max(p): 647961, min(p): 975.317
max(T): 1041.7, min(T): 652.909
ExecutionTime = 47.59 s  ClockTime = 48 s

Courant Number Mean/Max = 0.0894952, 0.3908
deltaT = 1e-05
Time = 0.00964

Calculating Fluxes
Euler: step 1
Solving compressibleSystem:

Post-updating compressibleSystem:

max(p): 644732, min(p): 968.452
max(T): 1041.43, min(T): 652.525
ExecutionTime = 47.63 s  ClockTime = 48 s

Courant Number Mean/Max = 0.0894758, 0.390733
deltaT = 1e-05
Time = 0.00965

Calculating Fluxes
Euler: step 1
Solving compressibleSystem:

Post-updating compressibleSystem:

max(p): 641511, min(p): 961.703
max(T): 1041.16, min(T): 652.151
ExecutionTime = 47.68 s  ClockTime = 48 s

Courant Number Mean/Max = 0.0894569, 0.390671
deltaT = 1e-05
Time = 0.00966

Calculating Fluxes
Euler: step 1
Solving compressibleSystem:

Post-updating compressibleSystem:

max(p): 638301, min(p): 955.046
max(T): 1040.89, min(T): 651.789
ExecutionTime = 47.72 s  ClockTime = 48 s

Courant Number Mean/Max = 0.0894381, 0.390615
deltaT = 1e-05
Time = 0.00967

Calculating Fluxes
Euler: step 1
Solving compressibleSystem:

Post-updating compressibleSystem:

max(p): 635100, min(p): 948.486
max(T): 1040.61, min(T): 651.438
ExecutionTime = 47.76 s  ClockTime = 48 s

Courant Number Mean/Max = 0.0894192, 0.390562
deltaT = 1e-05
Time = 0.00968

Calculating Fluxes
Euler: step 1
Solving compressibleSystem:

Post-updating compressibleSystem:

max(p): 631909, min(p): 942.024
max(T): 1040.34, min(T): 651.098
ExecutionTime = 47.8 s  ClockTime = 48 s

Courant Number Mean/Max = 0.0894005, 0.390513
deltaT = 1e-05
Time = 0.00969

Calculating Fluxes
Euler: step 1
Solving compressibleSystem:

Post-updating compressibleSystem:

max(p): 628728, min(p): 935.663
max(T): 1040.07, min(T): 650.769
ExecutionTime = 47.83 s  ClockTime = 49 s

Courant Number Mean/Max = 0.0893817, 0.390466
deltaT = 1e-05
Time = 0.0097

Calculating Fluxes
Euler: step 1
Solving compressibleSystem:

Post-updating compressibleSystem:

max(p): 625557, min(p): 929.449
max(T): 1039.8, min(T): 650.449
ExecutionTime = 47.88 s  ClockTime = 49 s

Courant Number Mean/Max = 0.0893628, 0.390421
deltaT = 1e-05
Time = 0.00971

Calculating Fluxes
Euler: step 1
Solving compressibleSystem:

Post-updating compressibleSystem:

max(p): 622396, min(p): 923.406
max(T): 1039.52, min(T): 650.134
ExecutionTime = 47.91 s  ClockTime = 49 s

Courant Number Mean/Max = 0.0893441, 0.390376
deltaT = 1e-05
Time = 0.00972

Calculating Fluxes
Euler: step 1
Solving compressibleSystem:

Post-updating compressibleSystem:

max(p): 619247, min(p): 917.536
max(T): 1039.25, min(T): 649.821
ExecutionTime = 47.96 s  ClockTime = 49 s

Courant Number Mean/Max = 0.089325, 0.390331
deltaT = 1e-05
Time = 0.00973

Calculating Fluxes
Euler: step 1
Solving compressibleSystem:

Post-updating compressibleSystem:

max(p): 616108, min(p): 911.839
max(T): 1038.97, min(T): 649.51
ExecutionTime = 48 s  ClockTime = 49 s

Courant Number Mean/Max = 0.0893058, 0.390336
deltaT = 1e-05
Time = 0.00974

Calculating Fluxes
Euler: step 1
Solving compressibleSystem:

Post-updating compressibleSystem:

max(p): 612979, min(p): 906.312
max(T): 1038.7, min(T): 649.202
ExecutionTime = 48.04 s  ClockTime = 49 s

Courant Number Mean/Max = 0.0892863, 0.390335
deltaT = 1e-05
Time = 0.00975

Calculating Fluxes
Euler: step 1
Solving compressibleSystem:

Post-updating compressibleSystem:

max(p): 609862, min(p): 900.953
max(T): 1038.42, min(T): 648.898
ExecutionTime = 48.08 s  ClockTime = 49 s

Courant Number Mean/Max = 0.0892666, 0.390328
deltaT = 1e-05
Time = 0.00976

Calculating Fluxes
Euler: step 1
Solving compressibleSystem:

Post-updating compressibleSystem:

max(p): 606756, min(p): 895.903
max(T): 1038.15, min(T): 648.598
ExecutionTime = 48.12 s  ClockTime = 49 s

Courant Number Mean/Max = 0.089247, 0.390312
deltaT = 1e-05
Time = 0.00977

Calculating Fluxes
Euler: step 1
Solving compressibleSystem:

Post-updating compressibleSystem:

max(p): 603661, min(p): 891.115
max(T): 1037.87, min(T): 648.302
ExecutionTime = 48.15 s  ClockTime = 49 s

Courant Number Mean/Max = 0.0892272, 0.390288
deltaT = 1e-05
Time = 0.00978

Calculating Fluxes
Euler: step 1
Solving compressibleSystem:

Post-updating compressibleSystem:

max(p): 600577, min(p): 886.576
max(T): 1037.6, min(T): 648.01
ExecutionTime = 48.19 s  ClockTime = 49 s

Courant Number Mean/Max = 0.0892075, 0.390257
deltaT = 1e-05
Time = 0.00979

Calculating Fluxes
Euler: step 1
Solving compressibleSystem:

Post-updating compressibleSystem:

max(p): 597505, min(p): 882.272
max(T): 1037.32, min(T): 647.724
ExecutionTime = 48.23 s  ClockTime = 49 s

Courant Number Mean/Max = 0.089188, 0.390219
deltaT = 1e-05
Time = 0.0098

Calculating Fluxes
Euler: step 1
Solving compressibleSystem:

Post-updating compressibleSystem:

max(p): 594445, min(p): 878.194
max(T): 1037.04, min(T): 647.441
ExecutionTime = 48.27 s  ClockTime = 49 s

Courant Number Mean/Max = 0.0891686, 0.390172
deltaT = 1e-05
Time = 0.00981

Calculating Fluxes
Euler: step 1
Solving compressibleSystem:

Post-updating compressibleSystem:

max(p): 591396, min(p): 874.33
max(T): 1036.77, min(T): 647.163
ExecutionTime = 48.32 s  ClockTime = 49 s

Courant Number Mean/Max = 0.0891497, 0.390118
deltaT = 1e-05
Time = 0.00982

Calculating Fluxes
Euler: step 1
Solving compressibleSystem:

Post-updating compressibleSystem:

max(p): 588359, min(p): 870.673
max(T): 1036.49, min(T): 646.89
ExecutionTime = 48.36 s  ClockTime = 49 s

Courant Number Mean/Max = 0.0891314, 0.390057
deltaT = 1e-05
Time = 0.00983

Calculating Fluxes
Euler: step 1
Solving compressibleSystem:

Post-updating compressibleSystem:

max(p): 585334, min(p): 867.216
max(T): 1036.21, min(T): 646.62
ExecutionTime = 48.4 s  ClockTime = 49 s

Courant Number Mean/Max = 0.0891131, 0.389989
deltaT = 1e-05
Time = 0.00984

Calculating Fluxes
Euler: step 1
Solving compressibleSystem:

Post-updating compressibleSystem:

max(p): 582321, min(p): 860.779
max(T): 1035.94, min(T): 646.353
ExecutionTime = 48.44 s  ClockTime = 49 s

Courant Number Mean/Max = 0.0890946, 0.389914
deltaT = 1e-05
Time = 0.00985

Calculating Fluxes
Euler: step 1
Solving compressibleSystem:

Post-updating compressibleSystem:

max(p): 579320, min(p): 851.935
max(T): 1035.66, min(T): 646.089
ExecutionTime = 48.48 s  ClockTime = 49 s

Courant Number Mean/Max = 0.0890762, 0.389833
deltaT = 1e-05
Time = 0.00986

Calculating Fluxes
Euler: step 1
Solving compressibleSystem:

Post-updating compressibleSystem:

max(p): 576331, min(p): 843.22
max(T): 1035.38, min(T): 645.827
ExecutionTime = 48.51 s  ClockTime = 49 s

Courant Number Mean/Max = 0.089058, 0.389745
deltaT = 1e-05
Time = 0.00987

Calculating Fluxes
Euler: step 1
Solving compressibleSystem:

Post-updating compressibleSystem:

max(p): 573355, min(p): 834.668
max(T): 1035.1, min(T): 645.564
ExecutionTime = 48.55 s  ClockTime = 49 s

Courant Number Mean/Max = 0.08904, 0.389652
deltaT = 1e-05
Time = 0.00988

Calculating Fluxes
Euler: step 1
Solving compressibleSystem:

Post-updating compressibleSystem:

max(p): 570390, min(p): 826.336
max(T): 1034.82, min(T): 645.301
ExecutionTime = 48.59 s  ClockTime = 49 s

Courant Number Mean/Max = 0.0890218, 0.389553
deltaT = 1e-05
Time = 0.00989

Calculating Fluxes
Euler: step 1
Solving compressibleSystem:

Post-updating compressibleSystem:

max(p): 567439, min(p): 818.276
max(T): 1034.55, min(T): 645.035
ExecutionTime = 48.63 s  ClockTime = 49 s

Courant Number Mean/Max = 0.0890032, 0.389448
deltaT = 1e-05
Time = 0.0099

Calculating Fluxes
Euler: step 1
Solving compressibleSystem:

Post-updating compressibleSystem:

max(p): 564500, min(p): 810.362
max(T): 1034.27, min(T): 644.767
ExecutionTime = 48.67 s  ClockTime = 49 s

Courant Number Mean/Max = 0.0889844, 0.389486
deltaT = 1e-05
Time = 0.00991

Calculating Fluxes
Euler: step 1
Solving compressibleSystem:

Post-updating compressibleSystem:

max(p): 561573, min(p): 802.601
max(T): 1033.99, min(T): 644.497
ExecutionTime = 48.71 s  ClockTime = 49 s

Courant Number Mean/Max = 0.0889654, 0.38953
deltaT = 1e-05
Time = 0.00992

Calculating Fluxes
Euler: step 1
Solving compressibleSystem:

Post-updating compressibleSystem:

max(p): 558659, min(p): 795.001
max(T): 1033.71, min(T): 644.226
ExecutionTime = 48.75 s  ClockTime = 49 s

Courant Number Mean/Max = 0.0889462, 0.389567
deltaT = 1e-05
Time = 0.00993

Calculating Fluxes
Euler: step 1
Solving compressibleSystem:

Post-updating compressibleSystem:

max(p): 555757, min(p): 787.572
max(T): 1033.43, min(T): 643.955
ExecutionTime = 48.79 s  ClockTime = 49 s

Courant Number Mean/Max = 0.0889267, 0.389599
deltaT = 1e-05
Time = 0.00994

Calculating Fluxes
Euler: step 1
Solving compressibleSystem:

Post-updating compressibleSystem:

max(p): 552868, min(p): 779.893
max(T): 1033.15, min(T): 643.685
ExecutionTime = 48.82 s  ClockTime = 50 s

Courant Number Mean/Max = 0.0889074, 0.389626
deltaT = 1e-05
Time = 0.00995

Calculating Fluxes
Euler: step 1
Solving compressibleSystem:

Post-updating compressibleSystem:

max(p): 549993, min(p): 770.777
max(T): 1032.87, min(T): 643.417
ExecutionTime = 48.86 s  ClockTime = 50 s

Courant Number Mean/Max = 0.0888885, 0.389648
deltaT = 1e-05
Time = 0.00996

Calculating Fluxes
Euler: step 1
Solving compressibleSystem:

Post-updating compressibleSystem:

max(p): 547131, min(p): 761.861
max(T): 1032.6, min(T): 643.151
ExecutionTime = 48.9 s  ClockTime = 50 s

Courant Number Mean/Max = 0.0888696, 0.389665
deltaT = 1e-05
Time = 0.00997

Calculating Fluxes
Euler: step 1
Solving compressibleSystem:

Post-updating compressibleSystem:

max(p): 544282, min(p): 753.149
max(T): 1032.32, min(T): 642.886
ExecutionTime = 48.94 s  ClockTime = 50 s

Courant Number Mean/Max = 0.088851, 0.389678
deltaT = 1e-05
Time = 0.00998

Calculating Fluxes
Euler: step 1
Solving compressibleSystem:

Post-updating compressibleSystem:

max(p): 541447, min(p): 744.641
max(T): 1032.04, min(T): 642.623
ExecutionTime = 48.98 s  ClockTime = 50 s

Courant Number Mean/Max = 0.0888325, 0.389686
deltaT = 1e-05
Time = 0.00999

Calculating Fluxes
Euler: step 1
Solving compressibleSystem:

Post-updating compressibleSystem:

max(p): 538626, min(p): 736.336
max(T): 1031.76, min(T): 642.36
ExecutionTime = 49.02 s  ClockTime = 50 s

Courant Number Mean/Max = 0.0888145, 0.389691
deltaT = 1e-05
Time = 0.01

Calculating Fluxes
Euler: step 1
Solving compressibleSystem:

Post-updating compressibleSystem:

max(p): 535818, min(p): 728.235
max(T): 1031.48, min(T): 642.097
ExecutionTime = 49.15 s  ClockTime = 50 s

End

